/*---------------------------------------------------------------------------*\
| =========                 |                                                 |
| \\      /  F ield         | OpenFOAM: The Open Source CFD Toolbox           |
|  \\    /   O peration     | Version:  2206                                  |
|   \\  /    A nd           | Website:  www.openfoam.com                      |
|    \\/     M anipulation  |                                                 |
\*---------------------------------------------------------------------------*/
Build  : _76d719d1-20220624 OPENFOAM=2206 version=2206
Arch   : "LSB;label=32;scalar=64"
Exec   : interFoam
Date   : Nov 28 2022
Time   : 17:14:47
Host   : LAPTOP-2J3LPIFO
PID    : 10443
I/O    : uncollated
Case   : /home/bepnos/PyFoamTesting/cloned-dambreak600
nProcs : 1
trapFpe: Floating point exception trapping enabled (FOAM_SIGFPE).
fileModificationChecking : Monitoring run-time modified files using timeStampMaster (fileModificationSkew 5, maxFileModificationPolls 20)
allowSystemOperations : Allowing user-supplied system call operations

// * * * * * * * * * * * * * * * * * * * * * * * * * * * * * * * * * * * * * //
Create time

Create mesh for time = 0


PIMPLE: Operating solver in PISO mode

Reading field p_rgh

Reading field U

Reading/calculating face flux field phi

Reading transportProperties

Selecting incompressible transport model Newtonian
Selecting incompressible transport model Newtonian
Selecting turbulence model type laminar
Selecting laminar stress model Stokes

Reading g

Reading hRef
Calculating field g.h

No MRF models present

No finite volume options present
DICPCG:  Solving for pcorr, Initial residual = 0, Final residual = 0, No Iterations 0
time step continuity errors : sum local = 0, global = 0, cumulative = 0
Courant Number mean: 0 max: 0

Starting time loop

Sampled set:
    gauge_1 -> vtk
    gauge_2 -> vtk

Courant Number mean: 0 max: 0
Interface Courant Number mean: 0 max: 0
deltaT = 0.00119048
Time = 0.00119048

PIMPLE: iteration 1
smoothSolver:  Solving for alpha.water, Initial residual = 0, Final residual = 0, No Iterations 0
Phase-1 volume fraction = 0.124619  Min(alpha.water) = 0  Max(alpha.water) = 1
MULES: Correcting alpha.water
MULES: Correcting alpha.water
Phase-1 volume fraction = 0.124619  Min(alpha.water) = 0  Max(alpha.water) = 1
DICPCG:  Solving for p_rgh, Initial residual = 1, Final residual = 0.00288661, No Iterations 1
time step continuity errors : sum local = 0.00100992, global = -1.36764e-14, cumulative = -1.36764e-14
DICPCG:  Solving for p_rgh, Initial residual = 0.00133828, Final residual = 5.687e-05, No Iterations 12
time step continuity errors : sum local = 4.29249e-05, global = -3.33165e-06, cumulative = -3.33165e-06
DICPCG:  Solving for p_rgh, Initial residual = 4.52238e-05, Final residual = 9.24827e-08, No Iterations 46
time step continuity errors : sum local = 8.75553e-08, global = -8.16699e-09, cumulative = -3.33981e-06
ExecutionTime = 0.03 s  ClockTime = 0 s

Courant Number mean: 0.00111964 max: 0.142225
Interface Courant Number mean: 0 max: 0
deltaT = 0.00140056
Time = 0.00259104

PIMPLE: iteration 1
smoothSolver:  Solving for alpha.water, Initial residual = 0.000240214, Final residual = 6.83551e-12, No Iterations 2
Phase-1 volume fraction = 0.124619  Min(alpha.water) = 0  Max(alpha.water) = 1
MULES: Correcting alpha.water
MULES: Correcting alpha.water
Phase-1 volume fraction = 0.124619  Min(alpha.water) = -1.04993e-12  Max(alpha.water) = 1
DICPCG:  Solving for p_rgh, Initial residual = 0.00272154, Final residual = 7.22384e-05, No Iterations 2
time step continuity errors : sum local = 8.0205e-05, global = -1.30617e-08, cumulative = -3.35288e-06
DICPCG:  Solving for p_rgh, Initial residual = 0.000161482, Final residual = 6.91604e-06, No Iterations 31
time step continuity errors : sum local = 7.68293e-06, global = 1.00702e-06, cumulative = -2.34585e-06
DICPCG:  Solving for p_rgh, Initial residual = 2.75853e-05, Final residual = 7.8625e-08, No Iterations 49
time step continuity errors : sum local = 8.73295e-08, global = -4.80079e-09, cumulative = -2.35065e-06
ExecutionTime = 0.04 s  ClockTime = 0 s

Courant Number mean: 0.00172355 max: 0.070656
Interface Courant Number mean: 3.98912e-05 max: 0.070656
deltaT = 0.00172377
Time = 0.0043148

PIMPLE: iteration 1
smoothSolver:  Solving for alpha.water, Initial residual = 0.000173036, Final residual = 1.75288e-13, No Iterations 2
Phase-1 volume fraction = 0.124619  Min(alpha.water) = 0  Max(alpha.water) = 1
MULES: Correcting alpha.water
MULES: Correcting alpha.water
Phase-1 volume fraction = 0.124619  Min(alpha.water) = -1.99783e-17  Max(alpha.water) = 1
DICPCG:  Solving for p_rgh, Initial residual = 0.00277491, Final residual = 4.50037e-05, No Iterations 2
time step continuity errors : sum local = 6.77441e-05, global = 1.9543e-09, cumulative = -2.3487e-06
DICPCG:  Solving for p_rgh, Initial residual = 4.77637e-05, Final residual = 2.15132e-06, No Iterations 31
time step continuity errors : sum local = 3.23578e-06, global = -5.83818e-07, cumulative = -2.93252e-06
DICPCG:  Solving for p_rgh, Initial residual = 2.52496e-06, Final residual = 8.90797e-08, No Iterations 33
time step continuity errors : sum local = 1.34011e-07, global = 7.20705e-09, cumulative = -2.92531e-06
ExecutionTime = 0.05 s  ClockTime = 0 s

Courant Number mean: 0.0031841 max: 0.0700648
Interface Courant Number mean: 4.79499e-05 max: 0.0578796
deltaT = 0.00206852
Time = 0.00638332

PIMPLE: iteration 1
smoothSolver:  Solving for alpha.water, Initial residual = 0.000223555, Final residual = 2.3538e-13, No Iterations 2
Phase-1 volume fraction = 0.124619  Min(alpha.water) = 0  Max(alpha.water) = 1
MULES: Correcting alpha.water
MULES: Correcting alpha.water
Phase-1 volume fraction = 0.124619  Min(alpha.water) = -3.02364e-16  Max(alpha.water) = 1
DICPCG:  Solving for p_rgh, Initial residual = 0.003897, Final residual = 0.000123481, No Iterations 1
time step continuity errors : sum local = 0.000244028, global = 3.37034e-08, cumulative = -2.89161e-06
DICPCG:  Solving for p_rgh, Initial residual = 0.000126435, Final residual = 6.30382e-06, No Iterations 6
time step continuity errors : sum local = 1.24308e-05, global = 1.48001e-08, cumulative = -2.87681e-06
DICPCG:  Solving for p_rgh, Initial residual = 6.91842e-06, Final residual = 9.3705e-08, No Iterations 41
time step continuity errors : sum local = 1.84768e-07, global = -1.64297e-09, cumulative = -2.87845e-06
ExecutionTime = 0.05 s  ClockTime = 0 s

Courant Number mean: 0.00547495 max: 0.0835178
Interface Courant Number mean: 0.000149864 max: 0.0652793
deltaT = 0.00265953
Time = 0.00904285

PIMPLE: iteration 1
smoothSolver:  Solving for alpha.water, Initial residual = 0.000370888, Final residual = 2.65972e-12, No Iterations 2
Phase-1 volume fraction = 0.124619  Min(alpha.water) = 0  Max(alpha.water) = 1
MULES: Correcting alpha.water
MULES: Correcting alpha.water
Phase-1 volume fraction = 0.124619  Min(alpha.water) = -1.45584e-15  Max(alpha.water) = 1
DICPCG:  Solving for p_rgh, Initial residual = 0.0066602, Final residual = 0.000139113, No Iterations 1
time step continuity errors : sum local = 0.000422811, global = 3.72007e-09, cumulative = -2.87473e-06
DICPCG:  Solving for p_rgh, Initial residual = 0.000142422, Final residual = 6.3277e-06, No Iterations 6
time step continuity errors : sum local = 1.91467e-05, global = 2.02885e-09, cumulative = -2.8727e-06
DICPCG:  Solving for p_rgh, Initial residual = 7.59341e-06, Final residual = 9.27648e-08, No Iterations 35
time step continuity errors : sum local = 2.80666e-07, global = -2.75621e-08, cumulative = -2.90026e-06
ExecutionTime = 0.06 s  ClockTime = 0 s

Courant Number mean: 0.00985632 max: 0.117957
Interface Courant Number mean: 0.000298272 max: 0.0885116
deltaT = 0.00319143
Time = 0.0122343

PIMPLE: iteration 1
smoothSolver:  Solving for alpha.water, Initial residual = 0.000589016, Final residual = 1.86963e-11, No Iterations 2
Phase-1 volume fraction = 0.124619  Min(alpha.water) = 0  Max(alpha.water) = 1
MULES: Correcting alpha.water
MULES: Correcting alpha.water
Phase-1 volume fraction = 0.124619  Min(alpha.water) = -7.67555e-11  Max(alpha.water) = 1
DICPCG:  Solving for p_rgh, Initial residual = 0.01077, Final residual = 0.000163178, No Iterations 1
time step continuity errors : sum local = 0.000675911, global = -3.11025e-08, cumulative = -2.93136e-06
DICPCG:  Solving for p_rgh, Initial residual = 0.000166575, Final residual = 7.81673e-06, No Iterations 6
time step continuity errors : sum local = 3.21502e-05, global = -4.90473e-08, cumulative = -2.98041e-06
DICPCG:  Solving for p_rgh, Initial residual = 1.04575e-05, Final residual = 9.87667e-08, No Iterations 36
time step continuity errors : sum local = 4.06177e-07, global = -4.59639e-08, cumulative = -3.02638e-06
ExecutionTime = 0.07 s  ClockTime = 0 s

Courant Number mean: 0.0159114 max: 0.163677
Interface Courant Number mean: 0.000545139 max: 0.123363
deltaT = 0.00425524
Time = 0.0164895

PIMPLE: iteration 1
smoothSolver:  Solving for alpha.water, Initial residual = 0.00101829, Final residual = 1.77148e-10, No Iterations 2
Phase-1 volume fraction = 0.124619  Min(alpha.water) = 0  Max(alpha.water) = 1
MULES: Correcting alpha.water
MULES: Correcting alpha.water
Phase-1 volume fraction = 0.124619  Min(alpha.water) = -1.88975e-10  Max(alpha.water) = 1
DICPCG:  Solving for p_rgh, Initial residual = 0.0186403, Final residual = 0.000215678, No Iterations 1
time step continuity errors : sum local = 0.0014956, global = 5.07054e-08, cumulative = -2.97567e-06
DICPCG:  Solving for p_rgh, Initial residual = 0.000222118, Final residual = 1.04132e-05, No Iterations 6
time step continuity errors : sum local = 7.13004e-05, global = 1.38002e-08, cumulative = -2.96187e-06
DICPCG:  Solving for p_rgh, Initial residual = 1.74185e-05, Final residual = 8.91105e-08, No Iterations 43
time step continuity errors : sum local = 6.09999e-07, global = 1.8129e-08, cumulative = -2.94374e-06
ExecutionTime = 0.07 s  ClockTime = 0 s

Courant Number mean: 0.0285313 max: 0.270725
Interface Courant Number mean: 0.00113901 max: 0.218518
deltaT = 0.00425524
Time = 0.0207448

PIMPLE: iteration 1
smoothSolver:  Solving for alpha.water, Initial residual = 0.0013268, Final residual = 3.93573e-10, No Iterations 2
Phase-1 volume fraction = 0.124619  Min(alpha.water) = 0  Max(alpha.water) = 1
MULES: Correcting alpha.water
MULES: Correcting alpha.water
Phase-1 volume fraction = 0.124619  Min(alpha.water) = -1.05834e-09  Max(alpha.water) = 1
DICPCG:  Solving for p_rgh, Initial residual = 0.0246986, Final residual = 0.000245624, No Iterations 1
time step continuity errors : sum local = 0.00161904, global = 2.39502e-07, cumulative = -2.70424e-06
DICPCG:  Solving for p_rgh, Initial residual = 0.000254076, Final residual = 9.64673e-06, No Iterations 7
time step continuity errors : sum local = 6.25382e-05, global = 1.75065e-07, cumulative = -2.52917e-06
DICPCG:  Solving for p_rgh, Initial residual = 2.0042e-05, Final residual = 8.76086e-08, No Iterations 43
time step continuity errors : sum local = 5.67852e-07, global = 2.82477e-08, cumulative = -2.50093e-06
ExecutionTime = 0.08 s  ClockTime = 0 s

Courant Number mean: 0.0357707 max: 0.329379
Interface Courant Number mean: 0.00142465 max: 0.274762
deltaT = 0.00425524
Time = 0.025

PIMPLE: iteration 1
smoothSolver:  Solving for alpha.water, Initial residual = 0.00162657, Final residual = 5.76945e-10, No Iterations 2
Phase-1 volume fraction = 0.124619  Min(alpha.water) = 0  Max(alpha.water) = 1
MULES: Correcting alpha.water
MULES: Correcting alpha.water
Phase-1 volume fraction = 0.124619  Min(alpha.water) = -1.34734e-08  Max(alpha.water) = 1
DICPCG:  Solving for p_rgh, Initial residual = 0.0302614, Final residual = 0.000212404, No Iterations 1
time step continuity errors : sum local = 0.00133038, global = 1.97119e-07, cumulative = -2.30381e-06
DICPCG:  Solving for p_rgh, Initial residual = 0.000224603, Final residual = 9.51294e-06, No Iterations 7
time step continuity errors : sum local = 5.83257e-05, global = 1.22554e-07, cumulative = -2.18125e-06
DICPCG:  Solving for p_rgh, Initial residual = 2.05001e-05, Final residual = 8.92478e-08, No Iterations 43
time step continuity errors : sum local = 5.4715e-07, global = 4.01133e-08, cumulative = -2.14114e-06
ExecutionTime = 0.09 s  ClockTime = 0 s

Courant Number mean: 0.0430926 max: 0.391128
Interface Courant Number mean: 0.00184751 max: 0.364384
deltaT = 0.005
Time = 0.03

PIMPLE: iteration 1
smoothSolver:  Solving for alpha.water, Initial residual = 0.00229198, Final residual = 4.85702e-09, No Iterations 2
Phase-1 volume fraction = 0.124619  Min(alpha.water) = 0  Max(alpha.water) = 1
MULES: Correcting alpha.water
MULES: Correcting alpha.water
Phase-1 volume fraction = 0.124619  Min(alpha.water) = -3.05533e-08  Max(alpha.water) = 1
DICPCG:  Solving for p_rgh, Initial residual = 0.0418637, Final residual = 0.000269098, No Iterations 1
time step continuity errors : sum local = 0.00215367, global = 4.0158e-07, cumulative = -1.73956e-06
DICPCG:  Solving for p_rgh, Initial residual = 0.000293903, Final residual = 1.29752e-05, No Iterations 7
time step continuity errors : sum local = 0.000100651, global = 2.68402e-07, cumulative = -1.47116e-06
DICPCG:  Solving for p_rgh, Initial residual = 3.39351e-05, Final residual = 8.26881e-08, No Iterations 44
time step continuity errors : sum local = 6.41407e-07, global = 5.51894e-08, cumulative = -1.41597e-06
ExecutionTime = 0.1 s  ClockTime = 0 s

Courant Number mean: 0.0607119 max: 0.54317
Interface Courant Number mean: 0.0027736 max: 0.460654
deltaT = 0.00666667
Time = 0.0366667

PIMPLE: iteration 1
smoothSolver:  Solving for alpha.water, Initial residual = 0.00360474, Final residual = 4.81394e-12, No Iterations 3
Phase-1 volume fraction = 0.124619  Min(alpha.water) = 0  Max(alpha.water) = 1
MULES: Correcting alpha.water
MULES: Correcting alpha.water
Phase-1 volume fraction = 0.124619  Min(alpha.water) = -1.53236e-07  Max(alpha.water) = 1
DICPCG:  Solving for p_rgh, Initial residual = 0.0627875, Final residual = 0.000474852, No Iterations 1
time step continuity errors : sum local = 0.00593296, global = 1.12158e-06, cumulative = -2.94388e-07
DICPCG:  Solving for p_rgh, Initial residual = 0.000542961, Final residual = 2.30059e-05, No Iterations 7
time step continuity errors : sum local = 0.000272674, global = 7.80302e-07, cumulative = 4.85914e-07
DICPCG:  Solving for p_rgh, Initial residual = 7.90355e-05, Final residual = 8.18068e-08, No Iterations 46
time step continuity errors : sum local = 9.69677e-07, global = 6.21794e-08, cumulative = 5.48093e-07
ExecutionTime = 0.11 s  ClockTime = 0 s

Courant Number mean: 0.0983594 max: 0.874334
Interface Courant Number mean: 0.00595097 max: 0.61536
deltaT = 0.00666667
Time = 0.0433333

PIMPLE: iteration 1
smoothSolver:  Solving for alpha.water, Initial residual = 0.00429165, Final residual = 5.34554e-10, No Iterations 3
Phase-1 volume fraction = 0.124619  Min(alpha.water) = 0  Max(alpha.water) = 1
MULES: Correcting alpha.water
MULES: Correcting alpha.water
Phase-1 volume fraction = 0.124619  Min(alpha.water) = -4.58989e-10  Max(alpha.water) = 1
DICPCG:  Solving for p_rgh, Initial residual = 0.0695065, Final residual = 0.000600659, No Iterations 1
time step continuity errors : sum local = 0.00658508, global = 9.74667e-07, cumulative = 1.52276e-06
DICPCG:  Solving for p_rgh, Initial residual = 0.00070564, Final residual = 3.40748e-05, No Iterations 7
time step continuity errors : sum local = 0.000351407, global = 8.12646e-07, cumulative = 2.33541e-06
DICPCG:  Solving for p_rgh, Initial residual = 0.000110823, Final residual = 7.08181e-08, No Iterations 47
time step continuity errors : sum local = 7.31509e-07, global = 1.03145e-07, cumulative = 2.43855e-06
ExecutionTime = 0.11 s  ClockTime = 0 s

Courant Number mean: 0.11559 max: 1.02572
Interface Courant Number mean: 0.00749636 max: 0.719115
deltaT = 0.00666667
Time = 0.05

PIMPLE: iteration 1
smoothSolver:  Solving for alpha.water, Initial residual = 0.0049783, Final residual = 4.48662e-09, No Iterations 3
Phase-1 volume fraction = 0.124619  Min(alpha.water) = 0  Max(alpha.water) = 1
MULES: Correcting alpha.water
MULES: Correcting alpha.water
Phase-1 volume fraction = 0.124619  Min(alpha.water) = -1.96534e-09  Max(alpha.water) = 1
DICPCG:  Solving for p_rgh, Initial residual = 0.0663401, Final residual = 0.000839635, No Iterations 1
time step continuity errors : sum local = 0.00801254, global = 9.91209e-07, cumulative = 3.42976e-06
DICPCG:  Solving for p_rgh, Initial residual = 0.000972088, Final residual = 3.92896e-05, No Iterations 8
time step continuity errors : sum local = 0.00035271, global = 1.31502e-06, cumulative = 4.74478e-06
DICPCG:  Solving for p_rgh, Initial residual = 0.000159043, Final residual = 7.74658e-08, No Iterations 47
time step continuity errors : sum local = 6.97852e-07, global = 1.50479e-08, cumulative = 4.75983e-06
ExecutionTime = 0.13 s  ClockTime = 0 s

Courant Number mean: 0.132611 max: 1.188
Interface Courant Number mean: 0.0090641 max: 0.79301
deltaT = 0.00625
Time = 0.05625

PIMPLE: iteration 1
smoothSolver:  Solving for alpha.water, Initial residual = 0.00532584, Final residual = 8.28487e-09, No Iterations 3
Phase-1 volume fraction = 0.124619  Min(alpha.water) = 0  Max(alpha.water) = 1
MULES: Correcting alpha.water
MULES: Correcting alpha.water
Phase-1 volume fraction = 0.124619  Min(alpha.water) = -2.2745e-05  Max(alpha.water) = 1
DICPCG:  Solving for p_rgh, Initial residual = 0.0527633, Final residual = 0.0012501, No Iterations 1
time step continuity errors : sum local = 0.00940153, global = 5.41676e-07, cumulative = 5.3015e-06
DICPCG:  Solving for p_rgh, Initial residual = 0.00141913, Final residual = 6.2619e-05, No Iterations 8
time step continuity errors : sum local = 0.000448895, global = 7.02908e-07, cumulative = 6.00441e-06
DICPCG:  Solving for p_rgh, Initial residual = 0.000225846, Final residual = 8.48824e-08, No Iterations 48
time step continuity errors : sum local = 6.11569e-07, global = 2.28966e-09, cumulative = 6.0067e-06
ExecutionTime = 0.13 s  ClockTime = 0 s

Courant Number mean: 0.139379 max: 1.26333
Interface Courant Number mean: 0.0106134 max: 0.815671
deltaT = 0.0046875
Time = 0.0609375

PIMPLE: iteration 1
smoothSolver:  Solving for alpha.water, Initial residual = 0.00446966, Final residual = 5.28e-09, No Iterations 3
Phase-1 volume fraction = 0.124619  Min(alpha.water) = -2.89422e-15  Max(alpha.water) = 1
MULES: Correcting alpha.water
MULES: Correcting alpha.water
Phase-1 volume fraction = 0.124619  Min(alpha.water) = -7.77431e-06  Max(alpha.water) = 1
DICPCG:  Solving for p_rgh, Initial residual = 0.0341147, Final residual = 0.00138774, No Iterations 1
time step continuity errors : sum local = 0.00569565, global = 1.61038e-07, cumulative = 6.16774e-06
DICPCG:  Solving for p_rgh, Initial residual = 0.00153526, Final residual = 6.41641e-05, No Iterations 8
time step continuity errors : sum local = 0.000256742, global = 1.55972e-08, cumulative = 6.18334e-06
DICPCG:  Solving for p_rgh, Initial residual = 0.000199474, Final residual = 7.54493e-08, No Iterations 48
time step continuity errors : sum local = 3.03195e-07, global = -4.38612e-09, cumulative = 6.17895e-06
ExecutionTime = 0.14 s  ClockTime = 0 s

Courant Number mean: 0.112544 max: 1.02863
Interface Courant Number mean: 0.00897805 max: 0.672855
deltaT = 0.0046875
Time = 0.065625

PIMPLE: iteration 1
smoothSolver:  Solving for alpha.water, Initial residual = 0.00484274, Final residual = 7.82801e-09, No Iterations 3
Phase-1 volume fraction = 0.124619  Min(alpha.water) = -1.66557e-17  Max(alpha.water) = 1
MULES: Correcting alpha.water
MULES: Correcting alpha.water
Phase-1 volume fraction = 0.124619  Min(alpha.water) = -5.79436e-07  Max(alpha.water) = 1
DICPCG:  Solving for p_rgh, Initial residual = 0.0317806, Final residual = 0.000994599, No Iterations 1
time step continuity errors : sum local = 0.00430714, global = 1.72798e-07, cumulative = 6.35175e-06
DICPCG:  Solving for p_rgh, Initial residual = 0.00111994, Final residual = 5.02255e-05, No Iterations 8
time step continuity errors : sum local = 0.000211953, global = -2.44674e-07, cumulative = 6.10707e-06
DICPCG:  Solving for p_rgh, Initial residual = 0.000171658, Final residual = 8.17049e-08, No Iterations 48
time step continuity errors : sum local = 3.45874e-07, global = -6.09634e-09, cumulative = 6.10098e-06
ExecutionTime = 0.15 s  ClockTime = 0 s

Courant Number mean: 0.120527 max: 1.10954
Interface Courant Number mean: 0.00923286 max: 0.720554
deltaT = 0.0046875
Time = 0.0703125

PIMPLE: iteration 1
smoothSolver:  Solving for alpha.water, Initial residual = 0.00521093, Final residual = 4.41649e-11, No Iterations 4
Phase-1 volume fraction = 0.124619  Min(alpha.water) = -5.90632e-13  Max(alpha.water) = 1
MULES: Correcting alpha.water
MULES: Correcting alpha.water
Phase-1 volume fraction = 0.124619  Min(alpha.water) = -1.9274e-08  Max(alpha.water) = 1
DICPCG:  Solving for p_rgh, Initial residual = 0.06554, Final residual = 0.000818055, No Iterations 1
time step continuity errors : sum local = 0.00395342, global = 2.4081e-07, cumulative = 6.34179e-06
DICPCG:  Solving for p_rgh, Initial residual = 0.000943924, Final residual = 4.59084e-05, No Iterations 8
time step continuity errors : sum local = 0.000208052, global = -4.11128e-07, cumulative = 5.93066e-06
DICPCG:  Solving for p_rgh, Initial residual = 0.000155467, Final residual = 8.59778e-08, No Iterations 46
time step continuity errors : sum local = 3.91038e-07, global = 3.10636e-08, cumulative = 5.96172e-06
ExecutionTime = 0.15 s  ClockTime = 0 s

Courant Number mean: 0.128262 max: 1.1886
Interface Courant Number mean: 0.0103649 max: 0.72719
deltaT = 0.0046875
Time = 0.075

PIMPLE: iteration 1
smoothSolver:  Solving for alpha.water, Initial residual = 0.00554807, Final residual = 9.10194e-11, No Iterations 4
Phase-1 volume fraction = 0.124619  Min(alpha.water) = -3.17617e-13  Max(alpha.water) = 1
MULES: Correcting alpha.water
MULES: Correcting alpha.water
Phase-1 volume fraction = 0.124619  Min(alpha.water) = -6.58727e-09  Max(alpha.water) = 1
DICPCG:  Solving for p_rgh, Initial residual = 0.0519811, Final residual = 0.00119688, No Iterations 1
time step continuity errors : sum local = 0.00515244, global = 2.95374e-07, cumulative = 6.2571e-06
DICPCG:  Solving for p_rgh, Initial residual = 0.00136678, Final residual = 6.80914e-05, No Iterations 8
time step continuity errors : sum local = 0.000278448, global = 9.7236e-08, cumulative = 6.35433e-06
DICPCG:  Solving for p_rgh, Initial residual = 0.000217358, Final residual = 9.98656e-08, No Iterations 48
time step continuity errors : sum local = 4.10357e-07, global = 3.44523e-09, cumulative = 6.35778e-06
ExecutionTime = 0.17 s  ClockTime = 0 s

Courant Number mean: 0.135922 max: 1.2635
Interface Courant Number mean: 0.012554 max: 0.895802
deltaT = 0.00357143
Time = 0.0785714

PIMPLE: iteration 1
smoothSolver:  Solving for alpha.water, Initial residual = 0.00454826, Final residual = 4.25374e-09, No Iterations 3
Phase-1 volume fraction = 0.124619  Min(alpha.water) = -2.24396e-13  Max(alpha.water) = 1
MULES: Correcting alpha.water
MULES: Correcting alpha.water
Phase-1 volume fraction = 0.124619  Min(alpha.water) = -3.20657e-08  Max(alpha.water) = 1
DICPCG:  Solving for p_rgh, Initial residual = 0.0330842, Final residual = 0.00134587, No Iterations 1
time step continuity errors : sum local = 0.00325868, global = 4.5662e-08, cumulative = 6.40344e-06
DICPCG:  Solving for p_rgh, Initial residual = 0.00148609, Final residual = 6.9038e-05, No Iterations 8
time step continuity errors : sum local = 0.000162624, global = -2.76631e-07, cumulative = 6.12681e-06
DICPCG:  Solving for p_rgh, Initial residual = 0.000191159, Final residual = 9.23836e-08, No Iterations 48
time step continuity errors : sum local = 2.18705e-07, global = 3.92435e-09, cumulative = 6.13074e-06
ExecutionTime = 0.18 s  ClockTime = 0 s

Courant Number mean: 0.107952 max: 0.997998
Interface Courant Number mean: 0.00959633 max: 0.713896
deltaT = 0.00357143
Time = 0.0821429

PIMPLE: iteration 1
smoothSolver:  Solving for alpha.water, Initial residual = 0.00474809, Final residual = 4.95934e-09, No Iterations 3
Phase-1 volume fraction = 0.124619  Min(alpha.water) = -1.53686e-13  Max(alpha.water) = 1
MULES: Correcting alpha.water
MULES: Correcting alpha.water
Phase-1 volume fraction = 0.124619  Min(alpha.water) = -1.08095e-08  Max(alpha.water) = 1
DICPCG:  Solving for p_rgh, Initial residual = 0.0294473, Final residual = 0.00111467, No Iterations 1
time step continuity errors : sum local = 0.00276523, global = 1.01025e-07, cumulative = 6.23176e-06
DICPCG:  Solving for p_rgh, Initial residual = 0.0012566, Final residual = 6.14365e-05, No Iterations 8
time step continuity errors : sum local = 0.000148945, global = -2.40405e-07, cumulative = 5.99135e-06
DICPCG:  Solving for p_rgh, Initial residual = 0.000174548, Final residual = 8.82204e-08, No Iterations 48
time step continuity errors : sum local = 2.14789e-07, global = 1.36561e-09, cumulative = 5.99272e-06
ExecutionTime = 0.18 s  ClockTime = 0 s

Courant Number mean: 0.112259 max: 1.03699
Interface Courant Number mean: 0.00940798 max: 0.736088
deltaT = 0.00357143
Time = 0.0857143

PIMPLE: iteration 1
smoothSolver:  Solving for alpha.water, Initial residual = 0.00496499, Final residual = 5.95699e-09, No Iterations 3
Phase-1 volume fraction = 0.124619  Min(alpha.water) = -4.73201e-10  Max(alpha.water) = 1
MULES: Correcting alpha.water
MULES: Correcting alpha.water
Phase-1 volume fraction = 0.124619  Min(alpha.water) = -1.19656e-09  Max(alpha.water) = 1
DICPCG:  Solving for p_rgh, Initial residual = 0.0605015, Final residual = 0.000765694, No Iterations 1
time step continuity errors : sum local = 0.00220878, global = 9.18024e-08, cumulative = 6.08452e-06
DICPCG:  Solving for p_rgh, Initial residual = 0.000886772, Final residual = 4.18048e-05, No Iterations 9
time step continuity errors : sum local = 0.000113527, global = -7.72949e-08, cumulative = 6.00723e-06
DICPCG:  Solving for p_rgh, Initial residual = 0.000126248, Final residual = 8.94415e-08, No Iterations 44
time step continuity errors : sum local = 2.44352e-07, global = 3.10977e-08, cumulative = 6.03833e-06
ExecutionTime = 0.19 s  ClockTime = 0 s

Courant Number mean: 0.116378 max: 1.07763
Interface Courant Number mean: 0.00939294 max: 0.742518
deltaT = 0.00357143
Time = 0.0892857

PIMPLE: iteration 1
smoothSolver:  Solving for alpha.water, Initial residual = 0.00519873, Final residual = 6.57996e-09, No Iterations 3
Phase-1 volume fraction = 0.124619  Min(alpha.water) = -3.84449e-10  Max(alpha.water) = 1
MULES: Correcting alpha.water
MULES: Correcting alpha.water
Phase-1 volume fraction = 0.124619  Min(alpha.water) = -9.26605e-07  Max(alpha.water) = 1
DICPCG:  Solving for p_rgh, Initial residual = 0.0499984, Final residual = 0.00107395, No Iterations 1
time step continuity errors : sum local = 0.0027763, global = 1.41336e-07, cumulative = 6.17966e-06
DICPCG:  Solving for p_rgh, Initial residual = 0.00123126, Final residual = 5.95936e-05, No Iterations 10
time step continuity errors : sum local = 0.000146624, global = 1.29646e-06, cumulative = 7.47612e-06
DICPCG:  Solving for p_rgh, Initial residual = 0.000175609, Final residual = 6.78242e-08, No Iterations 48
time step continuity errors : sum local = 1.68524e-07, global = -5.79234e-09, cumulative = 7.47033e-06
ExecutionTime = 0.2 s  ClockTime = 0 s

Courant Number mean: 0.120343 max: 1.11693
Interface Courant Number mean: 0.0101541 max: 0.841982
deltaT = 0.00357143
Time = 0.0928571

PIMPLE: iteration 1
smoothSolver:  Solving for alpha.water, Initial residual = 0.00539774, Final residual = 7.15446e-09, No Iterations 3
Phase-1 volume fraction = 0.124619  Min(alpha.water) = -3.10614e-10  Max(alpha.water) = 1
MULES: Correcting alpha.water
MULES: Correcting alpha.water
Phase-1 volume fraction = 0.124619  Min(alpha.water) = -3.32484e-10  Max(alpha.water) = 1
DICPCG:  Solving for p_rgh, Initial residual = 0.0384559, Final residual = 0.00144889, No Iterations 1
time step continuity errors : sum local = 0.00349587, global = 2.95868e-08, cumulative = 7.49992e-06
DICPCG:  Solving for p_rgh, Initial residual = 0.00164429, Final residual = 6.76722e-05, No Iterations 11
time step continuity errors : sum local = 0.000157729, global = 3.55684e-06, cumulative = 1.10568e-05
DICPCG:  Solving for p_rgh, Initial residual = 0.000227359, Final residual = 8.0124e-08, No Iterations 49
time step continuity errors : sum local = 1.89708e-07, global = 1.1964e-08, cumulative = 1.10687e-05
ExecutionTime = 0.2 s  ClockTime = 0 s

Courant Number mean: 0.124391 max: 1.17369
Interface Courant Number mean: 0.0109568 max: 0.88264
deltaT = 0.00357143
Time = 0.0964286

PIMPLE: iteration 1
smoothSolver:  Solving for alpha.water, Initial residual = 0.00554024, Final residual = 8.30533e-09, No Iterations 3
Phase-1 volume fraction = 0.124619  Min(alpha.water) = -2.49724e-10  Max(alpha.water) = 1
MULES: Correcting alpha.water
MULES: Correcting alpha.water
Phase-1 volume fraction = 0.124619  Min(alpha.water) = -2.43988e-09  Max(alpha.water) = 1
DICPCG:  Solving for p_rgh, Initial residual = 0.0319731, Final residual = 0.00128183, No Iterations 1
time step continuity errors : sum local = 0.00308568, global = 5.39065e-08, cumulative = 1.11226e-05
DICPCG:  Solving for p_rgh, Initial residual = 0.00148811, Final residual = 6.65055e-05, No Iterations 11
time step continuity errors : sum local = 0.000155792, global = 3.38692e-06, cumulative = 1.45095e-05
DICPCG:  Solving for p_rgh, Initial residual = 0.000214707, Final residual = 8.48639e-08, No Iterations 49
time step continuity errors : sum local = 2.02912e-07, global = 1.72796e-08, cumulative = 1.45268e-05
ExecutionTime = 0.21 s  ClockTime = 0 s

Courant Number mean: 0.128048 max: 1.30778
Interface Courant Number mean: 0.0113891 max: 0.930519
deltaT = 0.00357143
Time = 0.1

PIMPLE: iteration 1
smoothSolver:  Solving for alpha.water, Initial residual = 0.00579454, Final residual = 9.91463e-09, No Iterations 3
Phase-1 volume fraction = 0.124619  Min(alpha.water) = -1.94176e-10  Max(alpha.water) = 1
MULES: Correcting alpha.water
MULES: Correcting alpha.water
Phase-1 volume fraction = 0.124619  Min(alpha.water) = -2.07649e-09  Max(alpha.water) = 1
DICPCG:  Solving for p_rgh, Initial residual = 0.0473386, Final residual = 0.00101025, No Iterations 1
time step continuity errors : sum local = 0.00265665, global = -1.56517e-09, cumulative = 1.45253e-05
DICPCG:  Solving for p_rgh, Initial residual = 0.00118244, Final residual = 4.42951e-05, No Iterations 12
time step continuity errors : sum local = 0.000111288, global = 4.04274e-06, cumulative = 1.8568e-05
DICPCG:  Solving for p_rgh, Initial residual = 0.00017736, Final residual = 9.69123e-08, No Iterations 49
time step continuity errors : sum local = 2.50605e-07, global = 2.4354e-08, cumulative = 1.85924e-05
ExecutionTime = 0.22 s  ClockTime = 0 s

Courant Number mean: 0.131274 max: 1.45113
Interface Courant Number mean: 0.0123423 max: 0.958703
deltaT = 0.0025
Time = 0.1025

PIMPLE: iteration 1
smoothSolver:  Solving for alpha.water, Initial residual = 0.00421592, Final residual = 1.45032e-09, No Iterations 3
Phase-1 volume fraction = 0.124619  Min(alpha.water) = -1.64753e-10  Max(alpha.water) = 1
MULES: Correcting alpha.water
MULES: Correcting alpha.water
Phase-1 volume fraction = 0.124619  Min(alpha.water) = -1.64753e-10  Max(alpha.water) = 1
DICPCG:  Solving for p_rgh, Initial residual = 0.0403198, Final residual = 0.00089964, No Iterations 1
time step continuity errors : sum local = 0.00120848, global = -3.81372e-08, cumulative = 1.85542e-05
DICPCG:  Solving for p_rgh, Initial residual = 0.000996221, Final residual = 4.23695e-05, No Iterations 11
time step continuity errors : sum local = 5.47932e-05, global = 9.24725e-07, cumulative = 1.94789e-05
DICPCG:  Solving for p_rgh, Initial residual = 0.000125861, Final residual = 8.12079e-08, No Iterations 47
time step continuity errors : sum local = 1.06892e-07, global = 1.20283e-09, cumulative = 1.94802e-05
ExecutionTime = 0.23 s  ClockTime = 0 s

Courant Number mean: 0.0933707 max: 1.07572
Interface Courant Number mean: 0.00827275 max: 0.667528
deltaT = 0.00225
Time = 0.10475

PIMPLE: iteration 1
smoothSolver:  Solving for alpha.water, Initial residual = 0.00384536, Final residual = 8.30932e-10, No Iterations 3
Phase-1 volume fraction = 0.124619  Min(alpha.water) = -1.41625e-10  Max(alpha.water) = 1
MULES: Correcting alpha.water
MULES: Correcting alpha.water
Phase-1 volume fraction = 0.124619  Min(alpha.water) = -1.41625e-10  Max(alpha.water) = 1
DICPCG:  Solving for p_rgh, Initial residual = 0.031319, Final residual = 0.00104366, No Iterations 1
time step continuity errors : sum local = 0.00110077, global = -1.34469e-08, cumulative = 1.94667e-05
DICPCG:  Solving for p_rgh, Initial residual = 0.00114582, Final residual = 5.41944e-05, No Iterations 11
time step continuity errors : sum local = 5.55955e-05, global = 7.24831e-07, cumulative = 2.01915e-05
DICPCG:  Solving for p_rgh, Initial residual = 0.000139969, Final residual = 9.85208e-08, No Iterations 47
time step continuity errors : sum local = 1.02976e-07, global = 7.4791e-10, cumulative = 2.01923e-05
ExecutionTime = 0.23 s  ClockTime = 0 s

Courant Number mean: 0.0853018 max: 1.00896
Interface Courant Number mean: 0.007221 max: 0.6056
deltaT = 0.00225
Time = 0.107

PIMPLE: iteration 1
smoothSolver:  Solving for alpha.water, Initial residual = 0.00393248, Final residual = 8.85146e-10, No Iterations 3
Phase-1 volume fraction = 0.124619  Min(alpha.water) = -1.21515e-10  Max(alpha.water) = 1
MULES: Correcting alpha.water
MULES: Correcting alpha.water
Phase-1 volume fraction = 0.124619  Min(alpha.water) = -1.21515e-10  Max(alpha.water) = 1
DICPCG:  Solving for p_rgh, Initial residual = 0.0288433, Final residual = 0.000968945, No Iterations 1
time step continuity errors : sum local = 0.00102031, global = 8.03576e-09, cumulative = 2.02003e-05
DICPCG:  Solving for p_rgh, Initial residual = 0.00108051, Final residual = 3.76696e-05, No Iterations 12
time step continuity errors : sum local = 3.8715e-05, global = 1.21077e-06, cumulative = 2.14111e-05
DICPCG:  Solving for p_rgh, Initial residual = 0.000123681, Final residual = 8.56989e-08, No Iterations 41
time step continuity errors : sum local = 9.02624e-08, global = 6.88256e-09, cumulative = 2.1418e-05
ExecutionTime = 0.24 s  ClockTime = 0 s

Courant Number mean: 0.0865225 max: 1.04116
Interface Courant Number mean: 0.00746448 max: 0.628023
deltaT = 0.00225
Time = 0.10925

PIMPLE: iteration 1
smoothSolver:  Solving for alpha.water, Initial residual = 0.00401621, Final residual = 9.62246e-10, No Iterations 3
Phase-1 volume fraction = 0.124619  Min(alpha.water) = -1.04085e-10  Max(alpha.water) = 1
MULES: Correcting alpha.water
MULES: Correcting alpha.water
Phase-1 volume fraction = 0.124619  Min(alpha.water) = -1.04085e-10  Max(alpha.water) = 1
DICPCG:  Solving for p_rgh, Initial residual = 0.0298664, Final residual = 0.000905866, No Iterations 1
time step continuity errors : sum local = 0.000990516, global = -1.78722e-10, cumulative = 2.14178e-05
DICPCG:  Solving for p_rgh, Initial residual = 0.00101762, Final residual = 3.673e-05, No Iterations 12
time step continuity errors : sum local = 3.9133e-05, global = 1.13664e-06, cumulative = 2.25544e-05
DICPCG:  Solving for p_rgh, Initial residual = 0.000119723, Final residual = 8.5146e-08, No Iterations 48
time step continuity errors : sum local = 9.31327e-08, global = 1.01517e-08, cumulative = 2.25646e-05
ExecutionTime = 0.25 s  ClockTime = 0 s

Courant Number mean: 0.0875168 max: 1.064
Interface Courant Number mean: 0.00821116 max: 1.064
deltaT = 0.00225
Time = 0.1115

PIMPLE: iteration 1
smoothSolver:  Solving for alpha.water, Initial residual = 0.00411192, Final residual = 1.01617e-09, No Iterations 3
Phase-1 volume fraction = 0.124619  Min(alpha.water) = -8.90138e-11  Max(alpha.water) = 1
MULES: Correcting alpha.water
MULES: Correcting alpha.water
Phase-1 volume fraction = 0.124619  Min(alpha.water) = -8.90138e-11  Max(alpha.water) = 1
DICPCG:  Solving for p_rgh, Initial residual = 0.0300241, Final residual = 0.000814622, No Iterations 1
time step continuity errors : sum local = 0.000931623, global = -6.8713e-09, cumulative = 2.25577e-05
DICPCG:  Solving for p_rgh, Initial residual = 0.000917784, Final residual = 3.63584e-05, No Iterations 12
time step continuity errors : sum local = 4.05233e-05, global = 9.31033e-07, cumulative = 2.34887e-05
DICPCG:  Solving for p_rgh, Initial residual = 0.000116351, Final residual = 8.81894e-08, No Iterations 48
time step continuity errors : sum local = 1.01454e-07, global = 1.0399e-08, cumulative = 2.34991e-05
ExecutionTime = 0.25 s  ClockTime = 0 s

Courant Number mean: 0.088383 max: 1.07425
Interface Courant Number mean: 0.008319 max: 1.07425
deltaT = 0.00225
Time = 0.11375

PIMPLE: iteration 1
smoothSolver:  Solving for alpha.water, Initial residual = 0.00416162, Final residual = 1.04553e-09, No Iterations 3
Phase-1 volume fraction = 0.124619  Min(alpha.water) = -7.92779e-11  Max(alpha.water) = 1
MULES: Correcting alpha.water
MULES: Correcting alpha.water
Phase-1 volume fraction = 0.124619  Min(alpha.water) = -7.30487e-10  Max(alpha.water) = 1
DICPCG:  Solving for p_rgh, Initial residual = 0.0384161, Final residual = 0.000849928, No Iterations 1
time step continuity errors : sum local = 0.00104347, global = 2.39909e-10, cumulative = 2.34994e-05
DICPCG:  Solving for p_rgh, Initial residual = 0.00096358, Final residual = 3.87273e-05, No Iterations 12
time step continuity errors : sum local = 4.58585e-05, global = 9.27617e-07, cumulative = 2.4427e-05
DICPCG:  Solving for p_rgh, Initial residual = 0.000120462, Final residual = 9.63451e-08, No Iterations 47
time step continuity errors : sum local = 1.17345e-07, global = 4.3421e-09, cumulative = 2.44313e-05
ExecutionTime = 0.26 s  ClockTime = 0 s

Courant Number mean: 0.089171 max: 1.07199
Interface Courant Number mean: 0.00853435 max: 1.07199
deltaT = 0.00225
Time = 0.116

PIMPLE: iteration 1
smoothSolver:  Solving for alpha.water, Initial residual = 0.00417628, Final residual = 1.11491e-09, No Iterations 3
Phase-1 volume fraction = 0.124619  Min(alpha.water) = -7.70869e-11  Max(alpha.water) = 1
MULES: Correcting alpha.water
MULES: Correcting alpha.water
Phase-1 volume fraction = 0.124619  Min(alpha.water) = -7.70869e-11  Max(alpha.water) = 1
DICPCG:  Solving for p_rgh, Initial residual = 0.0342342, Final residual = 0.000895939, No Iterations 1
time step continuity errors : sum local = 0.00107107, global = -1.13836e-08, cumulative = 2.442e-05
DICPCG:  Solving for p_rgh, Initial residual = 0.00100816, Final residual = 4.38867e-05, No Iterations 12
time step continuity errors : sum local = 5.08092e-05, global = 8.54676e-07, cumulative = 2.52746e-05
DICPCG:  Solving for p_rgh, Initial residual = 0.000133588, Final residual = 9.61583e-08, No Iterations 47
time step continuity errors : sum local = 1.14187e-07, global = 9.52717e-09, cumulative = 2.52842e-05
ExecutionTime = 0.27 s  ClockTime = 0 s

Courant Number mean: 0.0898844 max: 1.06011
Interface Courant Number mean: 0.00913527 max: 1.06011
deltaT = 0.00225
Time = 0.11825

PIMPLE: iteration 1
smoothSolver:  Solving for alpha.water, Initial residual = 0.00420996, Final residual = 1.21009e-09, No Iterations 3
Phase-1 volume fraction = 0.124619  Min(alpha.water) = -7.37926e-11  Max(alpha.water) = 1
MULES: Correcting alpha.water
MULES: Correcting alpha.water
Phase-1 volume fraction = 0.124619  Min(alpha.water) = -7.37926e-11  Max(alpha.water) = 1
DICPCG:  Solving for p_rgh, Initial residual = 0.0292013, Final residual = 0.000861563, No Iterations 1
time step continuity errors : sum local = 0.00101216, global = -1.02813e-09, cumulative = 2.52831e-05
DICPCG:  Solving for p_rgh, Initial residual = 0.000971016, Final residual = 3.98451e-05, No Iterations 12
time step continuity errors : sum local = 4.56154e-05, global = 7.43251e-07, cumulative = 2.60264e-05
DICPCG:  Solving for p_rgh, Initial residual = 0.000120705, Final residual = 9.14502e-08, No Iterations 47
time step continuity errors : sum local = 1.07753e-07, global = 7.5506e-09, cumulative = 2.60339e-05
ExecutionTime = 0.27 s  ClockTime = 0 s

Courant Number mean: 0.0904282 max: 1.05447
Interface Courant Number mean: 0.00884949 max: 1.05447
deltaT = 0.00225
Time = 0.1205

PIMPLE: iteration 1
smoothSolver:  Solving for alpha.water, Initial residual = 0.00428456, Final residual = 1.21092e-09, No Iterations 3
Phase-1 volume fraction = 0.124619  Min(alpha.water) = -6.97519e-11  Max(alpha.water) = 1
MULES: Correcting alpha.water
MULES: Correcting alpha.water
Phase-1 volume fraction = 0.124619  Min(alpha.water) = -6.97519e-11  Max(alpha.water) = 1
DICPCG:  Solving for p_rgh, Initial residual = 0.027604, Final residual = 0.000860153, No Iterations 1
time step continuity errors : sum local = 0.00102574, global = -1.36637e-08, cumulative = 2.60203e-05
DICPCG:  Solving for p_rgh, Initial residual = 0.000969216, Final residual = 3.68931e-05, No Iterations 12
time step continuity errors : sum local = 4.29215e-05, global = 7.49269e-07, cumulative = 2.67695e-05
DICPCG:  Solving for p_rgh, Initial residual = 0.000122632, Final residual = 9.02919e-08, No Iterations 47
time step continuity errors : sum local = 1.08199e-07, global = 3.29649e-09, cumulative = 2.67728e-05
ExecutionTime = 0.28 s  ClockTime = 0 s

Courant Number mean: 0.0907348 max: 1.04432
Interface Courant Number mean: 0.00955819 max: 1.04432
deltaT = 0.00225
Time = 0.12275

PIMPLE: iteration 1
smoothSolver:  Solving for alpha.water, Initial residual = 0.00434528, Final residual = 1.27174e-09, No Iterations 3
Phase-1 volume fraction = 0.124619  Min(alpha.water) = -6.52489e-11  Max(alpha.water) = 1
MULES: Correcting alpha.water
MULES: Correcting alpha.water
Phase-1 volume fraction = 0.124619  Min(alpha.water) = -6.52489e-11  Max(alpha.water) = 1
DICPCG:  Solving for p_rgh, Initial residual = 0.0258105, Final residual = 0.000879977, No Iterations 1
time step continuity errors : sum local = 0.00107418, global = -2.52073e-08, cumulative = 2.67476e-05
DICPCG:  Solving for p_rgh, Initial residual = 0.000988259, Final residual = 3.92589e-05, No Iterations 12
time step continuity errors : sum local = 4.68596e-05, global = 6.85995e-07, cumulative = 2.74336e-05
DICPCG:  Solving for p_rgh, Initial residual = 0.000137496, Final residual = 8.45193e-08, No Iterations 48
time step continuity errors : sum local = 1.03909e-07, global = 7.99627e-09, cumulative = 2.74416e-05
ExecutionTime = 0.29 s  ClockTime = 0 s

Courant Number mean: 0.0909083 max: 1.04977
Interface Courant Number mean: 0.00944024 max: 1.03784
deltaT = 0.00225
Time = 0.125

PIMPLE: iteration 1
smoothSolver:  Solving for alpha.water, Initial residual = 0.00436341, Final residual = 1.45236e-09, No Iterations 3
Phase-1 volume fraction = 0.124619  Min(alpha.water) = -6.04793e-11  Max(alpha.water) = 1
MULES: Correcting alpha.water
MULES: Correcting alpha.water
Phase-1 volume fraction = 0.124619  Min(alpha.water) = -6.04793e-11  Max(alpha.water) = 1
DICPCG:  Solving for p_rgh, Initial residual = 0.0265375, Final residual = 0.00081928, No Iterations 1
time step continuity errors : sum local = 0.00104702, global = -1.94624e-08, cumulative = 2.74222e-05
DICPCG:  Solving for p_rgh, Initial residual = 0.000939258, Final residual = 3.58384e-05, No Iterations 12
time step continuity errors : sum local = 4.475e-05, global = 5.60595e-07, cumulative = 2.79828e-05
DICPCG:  Solving for p_rgh, Initial residual = 0.000137383, Final residual = 8.66334e-08, No Iterations 48
time step continuity errors : sum local = 1.11217e-07, global = 7.0731e-09, cumulative = 2.79898e-05
ExecutionTime = 0.3 s  ClockTime = 0 s

Courant Number mean: 0.0909778 max: 1.05681
Interface Courant Number mean: 0.0102176 max: 1.05173
deltaT = 0.00208333
Time = 0.127083

PIMPLE: iteration 1
smoothSolver:  Solving for alpha.water, Initial residual = 0.00401314, Final residual = 1.07927e-09, No Iterations 3
Phase-1 volume fraction = 0.124619  Min(alpha.water) = -5.59447e-11  Max(alpha.water) = 1
MULES: Correcting alpha.water
MULES: Correcting alpha.water
Phase-1 volume fraction = 0.124619  Min(alpha.water) = -5.59447e-11  Max(alpha.water) = 1
DICPCG:  Solving for p_rgh, Initial residual = 0.0308229, Final residual = 0.000692092, No Iterations 1
time step continuity errors : sum local = 0.000808332, global = -1.81014e-08, cumulative = 2.79717e-05
DICPCG:  Solving for p_rgh, Initial residual = 0.000813779, Final residual = 3.65716e-05, No Iterations 11
time step continuity errors : sum local = 4.15288e-05, global = 1.54358e-07, cumulative = 2.81261e-05
DICPCG:  Solving for p_rgh, Initial residual = 0.000130207, Final residual = 8.4926e-08, No Iterations 47
time step continuity errors : sum local = 9.81956e-08, global = 7.90431e-10, cumulative = 2.81269e-05
ExecutionTime = 0.31 s  ClockTime = 0 s

Courant Number mean: 0.084211 max: 0.992269
Interface Courant Number mean: 0.00933864 max: 0.992269
deltaT = 0.00208333
Time = 0.129167

PIMPLE: iteration 1
smoothSolver:  Solving for alpha.water, Initial residual = 0.00404261, Final residual = 1.2418e-09, No Iterations 3
Phase-1 volume fraction = 0.124619  Min(alpha.water) = -5.14304e-11  Max(alpha.water) = 1
MULES: Correcting alpha.water
MULES: Correcting alpha.water
Phase-1 volume fraction = 0.124619  Min(alpha.water) = -5.14304e-11  Max(alpha.water) = 1
DICPCG:  Solving for p_rgh, Initial residual = 0.027204, Final residual = 0.000692247, No Iterations 1
time step continuity errors : sum local = 0.000791134, global = -3.51388e-08, cumulative = 2.80917e-05
DICPCG:  Solving for p_rgh, Initial residual = 0.000832666, Final residual = 3.8641e-05, No Iterations 11
time step continuity errors : sum local = 4.31083e-05, global = 1.03497e-07, cumulative = 2.81952e-05
DICPCG:  Solving for p_rgh, Initial residual = 0.00014642, Final residual = 9.88114e-08, No Iterations 47
time step continuity errors : sum local = 1.12649e-07, global = 1.25592e-09, cumulative = 2.81965e-05
ExecutionTime = 0.32 s  ClockTime = 0 s

Courant Number mean: 0.0841968 max: 0.996881
Interface Courant Number mean: 0.00968232 max: 0.996881
deltaT = 0.00208333
Time = 0.13125

PIMPLE: iteration 1
smoothSolver:  Solving for alpha.water, Initial residual = 0.00406001, Final residual = 1.47902e-09, No Iterations 3
Phase-1 volume fraction = 0.124619  Min(alpha.water) = -4.70295e-11  Max(alpha.water) = 1
MULES: Correcting alpha.water
MULES: Correcting alpha.water
Phase-1 volume fraction = 0.124619  Min(alpha.water) = -4.70295e-11  Max(alpha.water) = 1
DICPCG:  Solving for p_rgh, Initial residual = 0.0256931, Final residual = 0.000753597, No Iterations 1
time step continuity errors : sum local = 0.000860631, global = -3.75139e-08, cumulative = 2.8159e-05
DICPCG:  Solving for p_rgh, Initial residual = 0.000897594, Final residual = 4.02307e-05, No Iterations 11
time step continuity errors : sum local = 4.49652e-05, global = 2.90474e-08, cumulative = 2.8188e-05
DICPCG:  Solving for p_rgh, Initial residual = 0.000158563, Final residual = 9.98955e-08, No Iterations 48
time step continuity errors : sum local = 1.14345e-07, global = 4.90022e-10, cumulative = 2.81885e-05
ExecutionTime = 0.32 s  ClockTime = 0 s

Courant Number mean: 0.0841381 max: 1.00225
Interface Courant Number mean: 0.0100431 max: 1.00225
deltaT = 0.00208333
Time = 0.133333

PIMPLE: iteration 1
smoothSolver:  Solving for alpha.water, Initial residual = 0.00409396, Final residual = 1.74704e-09, No Iterations 3
Phase-1 volume fraction = 0.124619  Min(alpha.water) = -4.44002e-11  Max(alpha.water) = 1
MULES: Correcting alpha.water
MULES: Correcting alpha.water
Phase-1 volume fraction = 0.124619  Min(alpha.water) = -4.44002e-11  Max(alpha.water) = 1
DICPCG:  Solving for p_rgh, Initial residual = 0.0225661, Final residual = 0.000833886, No Iterations 1
time step continuity errors : sum local = 0.000955394, global = -3.67189e-08, cumulative = 2.81518e-05
DICPCG:  Solving for p_rgh, Initial residual = 0.000950566, Final residual = 4.17311e-05, No Iterations 11
time step continuity errors : sum local = 4.69266e-05, global = 1.64616e-08, cumulative = 2.81683e-05
DICPCG:  Solving for p_rgh, Initial residual = 0.000163919, Final residual = 6.83801e-08, No Iterations 49
time step continuity errors : sum local = 7.84897e-08, global = -1.55926e-09, cumulative = 2.81667e-05
ExecutionTime = 0.33 s  ClockTime = 0 s

Courant Number mean: 0.0839355 max: 1.00109
Interface Courant Number mean: 0.0110942 max: 1.00109
deltaT = 0.00208333
Time = 0.135417

PIMPLE: iteration 1
smoothSolver:  Solving for alpha.water, Initial residual = 0.00411778, Final residual = 2.02681e-09, No Iterations 3
Phase-1 volume fraction = 0.124619  Min(alpha.water) = -4.32314e-11  Max(alpha.water) = 1
MULES: Correcting alpha.water
MULES: Correcting alpha.water
Phase-1 volume fraction = 0.124619  Min(alpha.water) = -5.37076e-10  Max(alpha.water) = 1
DICPCG:  Solving for p_rgh, Initial residual = 0.0220632, Final residual = 0.000843177, No Iterations 1
time step continuity errors : sum local = 0.000984714, global = -3.71725e-08, cumulative = 2.81295e-05
DICPCG:  Solving for p_rgh, Initial residual = 0.000954267, Final residual = 4.23615e-05, No Iterations 11
time step continuity errors : sum local = 4.86173e-05, global = -1.9064e-08, cumulative = 2.81105e-05
DICPCG:  Solving for p_rgh, Initial residual = 0.000152851, Final residual = 8.27809e-08, No Iterations 48
time step continuity errors : sum local = 9.66962e-08, global = -2.93265e-10, cumulative = 2.81102e-05
ExecutionTime = 0.33 s  ClockTime = 0 s

Courant Number mean: 0.0837368 max: 1.00062
Interface Courant Number mean: 0.011443 max: 1.00062
deltaT = 0.00208333
Time = 0.1375

PIMPLE: iteration 1
smoothSolver:  Solving for alpha.water, Initial residual = 0.00411509, Final residual = 2.33798e-09, No Iterations 3
Phase-1 volume fraction = 0.124619  Min(alpha.water) = -4.16678e-11  Max(alpha.water) = 1
MULES: Correcting alpha.water
MULES: Correcting alpha.water
Phase-1 volume fraction = 0.124619  Min(alpha.water) = -9.49608e-10  Max(alpha.water) = 1
DICPCG:  Solving for p_rgh, Initial residual = 0.0221471, Final residual = 0.000761997, No Iterations 1
time step continuity errors : sum local = 0.000915013, global = -3.34422e-08, cumulative = 2.80767e-05
DICPCG:  Solving for p_rgh, Initial residual = 0.00085631, Final residual = 3.43968e-05, No Iterations 11
time step continuity errors : sum local = 4.06081e-05, global = -7.85982e-08, cumulative = 2.79981e-05
DICPCG:  Solving for p_rgh, Initial residual = 0.000137483, Final residual = 8.57691e-08, No Iterations 46
time step continuity errors : sum local = 1.02437e-07, global = -3.66217e-09, cumulative = 2.79945e-05
ExecutionTime = 0.34 s  ClockTime = 0 s

Courant Number mean: 0.0834473 max: 1.00127
Interface Courant Number mean: 0.0113762 max: 1.00127
deltaT = 0.00208333
Time = 0.139583

PIMPLE: iteration 1
smoothSolver:  Solving for alpha.water, Initial residual = 0.00403869, Final residual = 2.67396e-09, No Iterations 3
Phase-1 volume fraction = 0.124619  Min(alpha.water) = -3.98102e-11  Max(alpha.water) = 1
MULES: Correcting alpha.water
MULES: Correcting alpha.water
Phase-1 volume fraction = 0.124619  Min(alpha.water) = -1.23569e-09  Max(alpha.water) = 1
DICPCG:  Solving for p_rgh, Initial residual = 0.0241175, Final residual = 0.000661766, No Iterations 1
time step continuity errors : sum local = 0.000824575, global = -4.10573e-08, cumulative = 2.79534e-05
DICPCG:  Solving for p_rgh, Initial residual = 0.000749457, Final residual = 3.38959e-05, No Iterations 11
time step continuity errors : sum local = 4.14133e-05, global = -1.08064e-07, cumulative = 2.78453e-05
DICPCG:  Solving for p_rgh, Initial residual = 0.000131421, Final residual = 8.14604e-08, No Iterations 46
time step continuity errors : sum local = 1.01177e-07, global = -3.59157e-10, cumulative = 2.7845e-05
ExecutionTime = 0.35 s  ClockTime = 0 s

Courant Number mean: 0.0832452 max: 0.996753
Interface Courant Number mean: 0.012399 max: 0.996753
deltaT = 0.00208333
Time = 0.141667

PIMPLE: iteration 1
smoothSolver:  Solving for alpha.water, Initial residual = 0.00395981, Final residual = 3.04366e-09, No Iterations 3
Phase-1 volume fraction = 0.124619  Min(alpha.water) = -3.77479e-11  Max(alpha.water) = 1
MULES: Correcting alpha.water
MULES: Correcting alpha.water
Phase-1 volume fraction = 0.124619  Min(alpha.water) = -8.17379e-10  Max(alpha.water) = 1
DICPCG:  Solving for p_rgh, Initial residual = 0.0248881, Final residual = 0.000694661, No Iterations 1
time step continuity errors : sum local = 0.000880601, global = -3.82626e-08, cumulative = 2.78067e-05
DICPCG:  Solving for p_rgh, Initial residual = 0.000778473, Final residual = 3.85017e-05, No Iterations 9
time step continuity errors : sum local = 4.78478e-05, global = -6.74101e-08, cumulative = 2.77393e-05
DICPCG:  Solving for p_rgh, Initial residual = 0.000140718, Final residual = 8.10249e-08, No Iterations 46
time step continuity errors : sum local = 1.01514e-07, global = -8.06461e-09, cumulative = 2.77312e-05
ExecutionTime = 0.35 s  ClockTime = 0 s

Courant Number mean: 0.0831966 max: 0.997443
Interface Courant Number mean: 0.0124608 max: 0.997443
deltaT = 0.00208333
Time = 0.14375

PIMPLE: iteration 1
smoothSolver:  Solving for alpha.water, Initial residual = 0.00393488, Final residual = 3.44101e-09, No Iterations 3
Phase-1 volume fraction = 0.124619  Min(alpha.water) = -3.55477e-11  Max(alpha.water) = 1
MULES: Correcting alpha.water
MULES: Correcting alpha.water
Phase-1 volume fraction = 0.124619  Min(alpha.water) = -3.55477e-11  Max(alpha.water) = 1
DICPCG:  Solving for p_rgh, Initial residual = 0.0231205, Final residual = 0.000776544, No Iterations 1
time step continuity errors : sum local = 0.000972466, global = -4.97071e-08, cumulative = 2.76815e-05
DICPCG:  Solving for p_rgh, Initial residual = 0.000881207, Final residual = 4.13659e-05, No Iterations 6
time step continuity errors : sum local = 5.09063e-05, global = -6.72891e-08, cumulative = 2.76143e-05
DICPCG:  Solving for p_rgh, Initial residual = 0.000158196, Final residual = 8.81874e-08, No Iterations 46
time step continuity errors : sum local = 1.08677e-07, global = 4.86028e-09, cumulative = 2.76191e-05
ExecutionTime = 0.36 s  ClockTime = 0 s

Courant Number mean: 0.0833122 max: 0.995493
Interface Courant Number mean: 0.012376 max: 0.995493
deltaT = 0.00208333
Time = 0.145833

PIMPLE: iteration 1
smoothSolver:  Solving for alpha.water, Initial residual = 0.00391012, Final residual = 3.85943e-09, No Iterations 3
Phase-1 volume fraction = 0.124619  Min(alpha.water) = -3.32686e-11  Max(alpha.water) = 1
MULES: Correcting alpha.water
MULES: Correcting alpha.water
Phase-1 volume fraction = 0.124619  Min(alpha.water) = -9.13646e-11  Max(alpha.water) = 1
DICPCG:  Solving for p_rgh, Initial residual = 0.0211238, Final residual = 0.000825749, No Iterations 1
time step continuity errors : sum local = 0.00102133, global = -1.99504e-08, cumulative = 2.75992e-05
DICPCG:  Solving for p_rgh, Initial residual = 0.000921842, Final residual = 4.52878e-05, No Iterations 5
time step continuity errors : sum local = 5.5178e-05, global = -1.9432e-08, cumulative = 2.75797e-05
DICPCG:  Solving for p_rgh, Initial residual = 0.000176861, Final residual = 7.32366e-08, No Iterations 48
time step continuity errors : sum local = 8.93105e-08, global = -3.19473e-09, cumulative = 2.75765e-05
ExecutionTime = 0.37 s  ClockTime = 1 s

Courant Number mean: 0.0835319 max: 0.991885
Interface Courant Number mean: 0.0125315 max: 0.991885
deltaT = 0.00208333
Time = 0.147917

PIMPLE: iteration 1
smoothSolver:  Solving for alpha.water, Initial residual = 0.00389653, Final residual = 4.21876e-09, No Iterations 3
Phase-1 volume fraction = 0.124619  Min(alpha.water) = -3.0962e-11  Max(alpha.water) = 1
MULES: Correcting alpha.water
MULES: Correcting alpha.water
Phase-1 volume fraction = 0.124619  Min(alpha.water) = -4.61042e-10  Max(alpha.water) = 1
DICPCG:  Solving for p_rgh, Initial residual = 0.0203008, Final residual = 0.000904839, No Iterations 1
time step continuity errors : sum local = 0.0011132, global = -4.66938e-08, cumulative = 2.75298e-05
DICPCG:  Solving for p_rgh, Initial residual = 0.00101824, Final residual = 4.79879e-05, No Iterations 5
time step continuity errors : sum local = 5.82418e-05, global = -2.76098e-08, cumulative = 2.75022e-05
DICPCG:  Solving for p_rgh, Initial residual = 0.000199702, Final residual = 9.59449e-08, No Iterations 48
time step continuity errors : sum local = 1.16573e-07, global = 2.55563e-09, cumulative = 2.75048e-05
ExecutionTime = 0.37 s  ClockTime = 1 s

Courant Number mean: 0.0838372 max: 0.990615
Interface Courant Number mean: 0.0123314 max: 0.990615
deltaT = 0.00208333
Time = 0.15

PIMPLE: iteration 1
smoothSolver:  Solving for alpha.water, Initial residual = 0.00385445, Final residual = 4.45741e-09, No Iterations 3
Phase-1 volume fraction = 0.124619  Min(alpha.water) = -2.86792e-11  Max(alpha.water) = 1
MULES: Correcting alpha.water
MULES: Correcting alpha.water
Phase-1 volume fraction = 0.124619  Min(alpha.water) = -6.2208e-10  Max(alpha.water) = 1
DICPCG:  Solving for p_rgh, Initial residual = 0.0205626, Final residual = 0.000384364, No Iterations 2
time step continuity errors : sum local = 0.000473436, global = -4.6273e-08, cumulative = 2.74585e-05
DICPCG:  Solving for p_rgh, Initial residual = 0.000475716, Final residual = 2.11157e-05, No Iterations 9
time step continuity errors : sum local = 2.56995e-05, global = -2.16201e-07, cumulative = 2.72423e-05
DICPCG:  Solving for p_rgh, Initial residual = 9.56052e-05, Final residual = 8.88201e-08, No Iterations 47
time step continuity errors : sum local = 1.08217e-07, global = -8.42531e-09, cumulative = 2.72339e-05
ExecutionTime = 0.39 s  ClockTime = 1 s

Courant Number mean: 0.0842507 max: 0.983356
Interface Courant Number mean: 0.0124455 max: 0.976714
deltaT = 0.00208333
Time = 0.152083

PIMPLE: iteration 1
smoothSolver:  Solving for alpha.water, Initial residual = 0.0038154, Final residual = 4.50029e-09, No Iterations 3
Phase-1 volume fraction = 0.124619  Min(alpha.water) = -2.77153e-11  Max(alpha.water) = 1
MULES: Correcting alpha.water
MULES: Correcting alpha.water
Phase-1 volume fraction = 0.124619  Min(alpha.water) = -2.58213e-09  Max(alpha.water) = 1
DICPCG:  Solving for p_rgh, Initial residual = 0.0201689, Final residual = 0.000411346, No Iterations 2
time step continuity errors : sum local = 0.000512536, global = -6.86577e-08, cumulative = 2.71652e-05
DICPCG:  Solving for p_rgh, Initial residual = 0.000514101, Final residual = 2.16976e-05, No Iterations 10
time step continuity errors : sum local = 2.67449e-05, global = -4.14186e-07, cumulative = 2.6751e-05
DICPCG:  Solving for p_rgh, Initial residual = 0.000106054, Final residual = 9.4137e-08, No Iterations 46
time step continuity errors : sum local = 1.15669e-07, global = -1.07652e-08, cumulative = 2.67403e-05
ExecutionTime = 0.39 s  ClockTime = 1 s

Courant Number mean: 0.0847275 max: 0.975988
Interface Courant Number mean: 0.0119242 max: 0.953831
deltaT = 0.00208333
Time = 0.154167

PIMPLE: iteration 1
smoothSolver:  Solving for alpha.water, Initial residual = 0.00373102, Final residual = 4.42246e-09, No Iterations 3
Phase-1 volume fraction = 0.124619  Min(alpha.water) = -2.68226e-11  Max(alpha.water) = 1
MULES: Correcting alpha.water
MULES: Correcting alpha.water
Phase-1 volume fraction = 0.124619  Min(alpha.water) = -2.87842e-10  Max(alpha.water) = 1
DICPCG:  Solving for p_rgh, Initial residual = 0.0201145, Final residual = 0.000480693, No Iterations 2
time step continuity errors : sum local = 0.000605409, global = -5.5898e-08, cumulative = 2.66844e-05
DICPCG:  Solving for p_rgh, Initial residual = 0.000583069, Final residual = 2.90475e-05, No Iterations 11
time step continuity errors : sum local = 3.61891e-05, global = -1.06876e-06, cumulative = 2.56156e-05
DICPCG:  Solving for p_rgh, Initial residual = 0.000125577, Final residual = 7.64947e-08, No Iterations 49
time step continuity errors : sum local = 9.45145e-08, global = -1.05646e-08, cumulative = 2.56051e-05
ExecutionTime = 0.4 s  ClockTime = 1 s

Courant Number mean: 0.0852354 max: 0.960771
Interface Courant Number mean: 0.012835 max: 0.95706
deltaT = 0.00208333
Time = 0.15625

PIMPLE: iteration 1
smoothSolver:  Solving for alpha.water, Initial residual = 0.00370921, Final residual = 4.19552e-09, No Iterations 3
Phase-1 volume fraction = 0.124619  Min(alpha.water) = -2.57971e-11  Max(alpha.water) = 1
MULES: Correcting alpha.water
MULES: Correcting alpha.water
Phase-1 volume fraction = 0.124619  Min(alpha.water) = -5.3694e-11  Max(alpha.water) = 1
DICPCG:  Solving for p_rgh, Initial residual = 0.0234859, Final residual = 0.000518974, No Iterations 2
time step continuity errors : sum local = 0.0006706, global = -4.33882e-08, cumulative = 2.55617e-05
DICPCG:  Solving for p_rgh, Initial residual = 0.000634505, Final residual = 2.73387e-05, No Iterations 12
time step continuity errors : sum local = 3.48709e-05, global = -1.76032e-06, cumulative = 2.38013e-05
DICPCG:  Solving for p_rgh, Initial residual = 0.000136472, Final residual = 9.75971e-08, No Iterations 48
time step continuity errors : sum local = 1.23358e-07, global = -1.37964e-08, cumulative = 2.37875e-05
ExecutionTime = 0.41 s  ClockTime = 1 s

Courant Number mean: 0.085882 max: 0.942292
Interface Courant Number mean: 0.0125668 max: 0.919763
deltaT = 0.00234375
Time = 0.158594

PIMPLE: iteration 1
smoothSolver:  Solving for alpha.water, Initial residual = 0.00414048, Final residual = 7.81519e-09, No Iterations 3
Phase-1 volume fraction = 0.124619  Min(alpha.water) = -2.45157e-11  Max(alpha.water) = 1
MULES: Correcting alpha.water
MULES: Correcting alpha.water
Phase-1 volume fraction = 0.124619  Min(alpha.water) = -3.99168e-06  Max(alpha.water) = 1
DICPCG:  Solving for p_rgh, Initial residual = 0.0252478, Final residual = 0.00059, No Iterations 2
time step continuity errors : sum local = 0.000941998, global = -6.73253e-08, cumulative = 2.37202e-05
DICPCG:  Solving for p_rgh, Initial residual = 0.000730496, Final residual = 3.33069e-05, No Iterations 12
time step continuity errors : sum local = 5.24415e-05, global = -3.66411e-06, cumulative = 2.00561e-05
DICPCG:  Solving for p_rgh, Initial residual = 0.000170958, Final residual = 7.4713e-08, No Iterations 50
time step continuity errors : sum local = 1.1664e-07, global = -1.1337e-08, cumulative = 2.00448e-05
ExecutionTime = 0.41 s  ClockTime = 1 s

Courant Number mean: 0.0972423 max: 1.0331
Interface Courant Number mean: 0.0138289 max: 1.00914
deltaT = 0.00234375
Time = 0.160938

PIMPLE: iteration 1
smoothSolver:  Solving for alpha.water, Initial residual = 0.00410324, Final residual = 6.80115e-09, No Iterations 3
Phase-1 volume fraction = 0.124619  Min(alpha.water) = -2.31507e-11  Max(alpha.water) = 1
MULES: Correcting alpha.water
MULES: Correcting alpha.water
Phase-1 volume fraction = 0.124619  Min(alpha.water) = -1.29698e-05  Max(alpha.water) = 1
DICPCG:  Solving for p_rgh, Initial residual = 0.0240001, Final residual = 0.000688399, No Iterations 2
time step continuity errors : sum local = 0.00107432, global = -2.12987e-08, cumulative = 2.00235e-05
DICPCG:  Solving for p_rgh, Initial residual = 0.000825307, Final residual = 3.99104e-05, No Iterations 11
time step continuity errors : sum local = 6.16046e-05, global = -3.16002e-06, cumulative = 1.68635e-05
DICPCG:  Solving for p_rgh, Initial residual = 0.000195085, Final residual = 9.66674e-08, No Iterations 50
time step continuity errors : sum local = 1.47933e-07, global = -1.7429e-08, cumulative = 1.6846e-05
ExecutionTime = 0.42 s  ClockTime = 1 s

Courant Number mean: 0.0979519 max: 1.01657
Interface Courant Number mean: 0.0147872 max: 1.00267
deltaT = 0.00234375
Time = 0.163281

PIMPLE: iteration 1
smoothSolver:  Solving for alpha.water, Initial residual = 0.00409735, Final residual = 5.63098e-09, No Iterations 3
Phase-1 volume fraction = 0.124619  Min(alpha.water) = -2.1739e-11  Max(alpha.water) = 1
MULES: Correcting alpha.water
MULES: Correcting alpha.water
Phase-1 volume fraction = 0.124619  Min(alpha.water) = -1.96797e-05  Max(alpha.water) = 1
DICPCG:  Solving for p_rgh, Initial residual = 0.0236278, Final residual = 0.000796169, No Iterations 2
time step continuity errors : sum local = 0.00122588, global = -1.96254e-08, cumulative = 1.68264e-05
DICPCG:  Solving for p_rgh, Initial residual = 0.00095176, Final residual = 4.04422e-05, No Iterations 13
time step continuity errors : sum local = 6.1684e-05, global = -8.90968e-06, cumulative = 7.91672e-06
DICPCG:  Solving for p_rgh, Initial residual = 0.000218819, Final residual = 9.93894e-08, No Iterations 46
time step continuity errors : sum local = 1.49345e-07, global = -1.76536e-08, cumulative = 7.89907e-06
ExecutionTime = 0.42 s  ClockTime = 1 s

Courant Number mean: 0.0984223 max: 0.994423
Interface Courant Number mean: 0.0146087 max: 0.993024
deltaT = 0.00234375
Time = 0.165625

PIMPLE: iteration 1
smoothSolver:  Solving for alpha.water, Initial residual = 0.00403148, Final residual = 4.63234e-09, No Iterations 3
Phase-1 volume fraction = 0.124619  Min(alpha.water) = -2.03471e-11  Max(alpha.water) = 1
MULES: Correcting alpha.water
MULES: Correcting alpha.water
Phase-1 volume fraction = 0.124619  Min(alpha.water) = -4.82725e-05  Max(alpha.water) = 1
DICPCG:  Solving for p_rgh, Initial residual = 0.0235544, Final residual = 0.00081928, No Iterations 2
time step continuity errors : sum local = 0.00124691, global = 6.32285e-08, cumulative = 7.9623e-06
DICPCG:  Solving for p_rgh, Initial residual = 0.000975095, Final residual = 4.20681e-05, No Iterations 13
time step continuity errors : sum local = 6.35628e-05, global = -9.22828e-06, cumulative = -1.26598e-06
DICPCG:  Solving for p_rgh, Initial residual = 0.00022667, Final residual = 8.46229e-08, No Iterations 51
time step continuity errors : sum local = 1.25611e-07, global = -4.89363e-09, cumulative = -1.27087e-06
ExecutionTime = 0.43 s  ClockTime = 1 s

Courant Number mean: 0.0989771 max: 0.982127
Interface Courant Number mean: 0.0148126 max: 0.982127
deltaT = 0.00234375
Time = 0.167969

PIMPLE: iteration 1
smoothSolver:  Solving for alpha.water, Initial residual = 0.0040417, Final residual = 3.8117e-09, No Iterations 3
Phase-1 volume fraction = 0.124619  Min(alpha.water) = -1.99075e-11  Max(alpha.water) = 1
MULES: Correcting alpha.water
MULES: Correcting alpha.water
Phase-1 volume fraction = 0.124619  Min(alpha.water) = -7.03038e-05  Max(alpha.water) = 1
DICPCG:  Solving for p_rgh, Initial residual = 0.0231593, Final residual = 0.000860035, No Iterations 2
time step continuity errors : sum local = 0.00129953, global = 1.12784e-07, cumulative = -1.15809e-06
DICPCG:  Solving for p_rgh, Initial residual = 0.000992953, Final residual = 4.24139e-05, No Iterations 13
time step continuity errors : sum local = 6.36803e-05, global = -1.02321e-05, cumulative = -1.13902e-05
DICPCG:  Solving for p_rgh, Initial residual = 0.000237273, Final residual = 9.79066e-08, No Iterations 51
time step continuity errors : sum local = 1.43961e-07, global = -3.82973e-09, cumulative = -1.1394e-05
ExecutionTime = 0.44 s  ClockTime = 1 s

Courant Number mean: 0.099603 max: 0.971929
Interface Courant Number mean: 0.0154115 max: 0.971929
deltaT = 0.00234375
Time = 0.170313

PIMPLE: iteration 1
smoothSolver:  Solving for alpha.water, Initial residual = 0.00401572, Final residual = 3.09042e-09, No Iterations 3
Phase-1 volume fraction = 0.124619  Min(alpha.water) = -1.9326e-11  Max(alpha.water) = 1
MULES: Correcting alpha.water
MULES: Correcting alpha.water
Phase-1 volume fraction = 0.124619  Min(alpha.water) = -9.55377e-05  Max(alpha.water) = 1
DICPCG:  Solving for p_rgh, Initial residual = 0.0226471, Final residual = 0.000928624, No Iterations 2
time step continuity errors : sum local = 0.00139567, global = 1.41784e-07, cumulative = -1.12522e-05
DICPCG:  Solving for p_rgh, Initial residual = 0.00106339, Final residual = 4.53571e-05, No Iterations 13
time step continuity errors : sum local = 6.78061e-05, global = -1.13456e-05, cumulative = -2.25978e-05
DICPCG:  Solving for p_rgh, Initial residual = 0.000245463, Final residual = 9.91121e-08, No Iterations 51
time step continuity errors : sum local = 1.45188e-07, global = -8.29954e-09, cumulative = -2.26061e-05
ExecutionTime = 0.44 s  ClockTime = 1 s

Courant Number mean: 0.100112 max: 0.962027
Interface Courant Number mean: 0.0147031 max: 0.962027
deltaT = 0.00234375
Time = 0.172656

PIMPLE: iteration 1
smoothSolver:  Solving for alpha.water, Initial residual = 0.00397616, Final residual = 2.42418e-09, No Iterations 3
Phase-1 volume fraction = 0.124619  Min(alpha.water) = -1.86342e-11  Max(alpha.water) = 1
MULES: Correcting alpha.water
MULES: Correcting alpha.water
Phase-1 volume fraction = 0.124619  Min(alpha.water) = -0.000121901  Max(alpha.water) = 1
DICPCG:  Solving for p_rgh, Initial residual = 0.0229498, Final residual = 0.000880725, No Iterations 2
time step continuity errors : sum local = 0.00132715, global = 1.84096e-07, cumulative = -2.2422e-05
DICPCG:  Solving for p_rgh, Initial residual = 0.00101122, Final residual = 4.30114e-05, No Iterations 13
time step continuity errors : sum local = 6.44853e-05, global = -1.14081e-05, cumulative = -3.38301e-05
DICPCG:  Solving for p_rgh, Initial residual = 0.000228798, Final residual = 9.29828e-08, No Iterations 51
time step continuity errors : sum local = 1.36877e-07, global = -1.23955e-08, cumulative = -3.38425e-05
ExecutionTime = 0.45 s  ClockTime = 1 s

Courant Number mean: 0.100591 max: 0.954722
Interface Courant Number mean: 0.0155634 max: 0.954722
deltaT = 0.00234375
Time = 0.175

PIMPLE: iteration 1
smoothSolver:  Solving for alpha.water, Initial residual = 0.00405557, Final residual = 2.04134e-09, No Iterations 3
Phase-1 volume fraction = 0.124619  Min(alpha.water) = -1.78611e-11  Max(alpha.water) = 1
MULES: Correcting alpha.water
MULES: Correcting alpha.water
Phase-1 volume fraction = 0.124619  Min(alpha.water) = -0.000116875  Max(alpha.water) = 1
DICPCG:  Solving for p_rgh, Initial residual = 0.0243852, Final residual = 0.000860351, No Iterations 2
time step continuity errors : sum local = 0.00131887, global = 2.29195e-07, cumulative = -3.36133e-05
DICPCG:  Solving for p_rgh, Initial residual = 0.000990619, Final residual = 3.86017e-05, No Iterations 13
time step continuity errors : sum local = 5.88195e-05, global = -9.80271e-06, cumulative = -4.3416e-05
DICPCG:  Solving for p_rgh, Initial residual = 0.000221098, Final residual = 9.20091e-08, No Iterations 51
time step continuity errors : sum local = 1.37534e-07, global = -1.03843e-08, cumulative = -4.34264e-05
ExecutionTime = 0.46 s  ClockTime = 1 s

Courant Number mean: 0.101037 max: 0.949646
Interface Courant Number mean: 0.0161398 max: 0.949646
deltaT = 0.0025
Time = 0.1775

PIMPLE: iteration 1
smoothSolver:  Solving for alpha.water, Initial residual = 0.00424002, Final residual = 2.72595e-09, No Iterations 3
Phase-1 volume fraction = 0.124619  Min(alpha.water) = -1.69718e-11  Max(alpha.water) = 1
MULES: Correcting alpha.water
MULES: Correcting alpha.water
Phase-1 volume fraction = 0.124619  Min(alpha.water) = -5.67479e-05  Max(alpha.water) = 1
DICPCG:  Solving for p_rgh, Initial residual = 0.025329, Final residual = 0.000873287, No Iterations 2
time step continuity errors : sum local = 0.00151201, global = 3.34708e-07, cumulative = -4.30917e-05
DICPCG:  Solving for p_rgh, Initial residual = 0.0009986, Final residual = 3.68676e-05, No Iterations 13
time step continuity errors : sum local = 6.33214e-05, global = -1.03568e-05, cumulative = -5.34485e-05
DICPCG:  Solving for p_rgh, Initial residual = 0.000227156, Final residual = 7.82672e-08, No Iterations 52
time step continuity errors : sum local = 1.3168e-07, global = -6.56046e-09, cumulative = -5.3455e-05
ExecutionTime = 0.47 s  ClockTime = 1 s

Courant Number mean: 0.108331 max: 1.00707
Interface Courant Number mean: 0.0170578 max: 1.00707
deltaT = 0.0025
Time = 0.18

PIMPLE: iteration 1
smoothSolver:  Solving for alpha.water, Initial residual = 0.00442717, Final residual = 2.78772e-09, No Iterations 3
Phase-1 volume fraction = 0.124619  Min(alpha.water) = -1.60443e-11  Max(alpha.water) = 1
MULES: Correcting alpha.water
MULES: Correcting alpha.water
Phase-1 volume fraction = 0.124619  Min(alpha.water) = -1.35965e-05  Max(alpha.water) = 1
DICPCG:  Solving for p_rgh, Initial residual = 0.0252846, Final residual = 0.000860828, No Iterations 2
time step continuity errors : sum local = 0.00147623, global = 4.24799e-07, cumulative = -5.30302e-05
DICPCG:  Solving for p_rgh, Initial residual = 0.000993063, Final residual = 4.70073e-05, No Iterations 12
time step continuity errors : sum local = 8.0003e-05, global = -1.03879e-05, cumulative = -6.34181e-05
DICPCG:  Solving for p_rgh, Initial residual = 0.000225986, Final residual = 9.46359e-08, No Iterations 51
time step continuity errors : sum local = 1.5783e-07, global = -1.11194e-08, cumulative = -6.34292e-05
ExecutionTime = 0.48 s  ClockTime = 1 s

Courant Number mean: 0.109014 max: 1.00095
Interface Courant Number mean: 0.0179423 max: 1.00095
deltaT = 0.0025
Time = 0.1825

PIMPLE: iteration 1
smoothSolver:  Solving for alpha.water, Initial residual = 0.00444664, Final residual = 2.5499e-09, No Iterations 3
Phase-1 volume fraction = 0.124619  Min(alpha.water) = -1.50998e-11  Max(alpha.water) = 1
MULES: Correcting alpha.water
MULES: Correcting alpha.water
Phase-1 volume fraction = 0.124619  Min(alpha.water) = -3.86311e-06  Max(alpha.water) = 1
DICPCG:  Solving for p_rgh, Initial residual = 0.0248983, Final residual = 0.000768673, No Iterations 2
time step continuity errors : sum local = 0.00128838, global = 5.32928e-07, cumulative = -6.28963e-05
DICPCG:  Solving for p_rgh, Initial residual = 0.000892695, Final residual = 3.77698e-05, No Iterations 12
time step continuity errors : sum local = 6.27836e-05, global = -6.94759e-06, cumulative = -6.98439e-05
DICPCG:  Solving for p_rgh, Initial residual = 0.000207927, Final residual = 7.84079e-08, No Iterations 39
time step continuity errors : sum local = 1.2779e-07, global = 1.22696e-08, cumulative = -6.98316e-05
ExecutionTime = 0.48 s  ClockTime = 1 s

Courant Number mean: 0.109967 max: 0.994358
Interface Courant Number mean: 0.017651 max: 0.994358
deltaT = 0.0025
Time = 0.185

PIMPLE: iteration 1
smoothSolver:  Solving for alpha.water, Initial residual = 0.00458193, Final residual = 2.77776e-09, No Iterations 3
Phase-1 volume fraction = 0.124619  Min(alpha.water) = -1.41563e-11  Max(alpha.water) = 1
MULES: Correcting alpha.water
MULES: Correcting alpha.water
Phase-1 volume fraction = 0.124619  Min(alpha.water) = -1.98506e-06  Max(alpha.water) = 1
DICPCG:  Solving for p_rgh, Initial residual = 0.0244971, Final residual = 0.000870198, No Iterations 2
time step continuity errors : sum local = 0.00142787, global = 6.42294e-07, cumulative = -6.91893e-05
DICPCG:  Solving for p_rgh, Initial residual = 0.00101313, Final residual = 3.85003e-05, No Iterations 12
time step continuity errors : sum local = 6.26681e-05, global = -6.24271e-06, cumulative = -7.5432e-05
DICPCG:  Solving for p_rgh, Initial residual = 0.00022435, Final residual = 8.35479e-08, No Iterations 49
time step continuity errors : sum local = 1.33637e-07, global = 7.12515e-09, cumulative = -7.54249e-05
ExecutionTime = 0.49 s  ClockTime = 1 s

Courant Number mean: 0.110965 max: 0.989545
Interface Courant Number mean: 0.0174177 max: 0.989545
deltaT = 0.0025
Time = 0.1875

PIMPLE: iteration 1
smoothSolver:  Solving for alpha.water, Initial residual = 0.00466526, Final residual = 2.66657e-09, No Iterations 3
Phase-1 volume fraction = 0.124619  Min(alpha.water) = -1.32271e-11  Max(alpha.water) = 1
MULES: Correcting alpha.water
MULES: Correcting alpha.water
Phase-1 volume fraction = 0.124619  Min(alpha.water) = -2.64565e-06  Max(alpha.water) = 1
DICPCG:  Solving for p_rgh, Initial residual = 0.0257101, Final residual = 0.000926107, No Iterations 2
time step continuity errors : sum local = 0.00149534, global = 7.44744e-07, cumulative = -7.46802e-05
DICPCG:  Solving for p_rgh, Initial residual = 0.00109888, Final residual = 4.48428e-05, No Iterations 12
time step continuity errors : sum local = 7.17239e-05, global = -1.95834e-06, cumulative = -7.66385e-05
DICPCG:  Solving for p_rgh, Initial residual = 0.000239905, Final residual = 7.99881e-08, No Iterations 51
time step continuity errors : sum local = 1.25855e-07, global = 1.3587e-08, cumulative = -7.66249e-05
ExecutionTime = 0.49 s  ClockTime = 1 s

Courant Number mean: 0.112135 max: 0.985272
Interface Courant Number mean: 0.0193402 max: 0.985272
deltaT = 0.0025
Time = 0.19

PIMPLE: iteration 1
smoothSolver:  Solving for alpha.water, Initial residual = 0.00475534, Final residual = 2.71699e-09, No Iterations 3
Phase-1 volume fraction = 0.124619  Min(alpha.water) = -1.25431e-11  Max(alpha.water) = 1
MULES: Correcting alpha.water
MULES: Correcting alpha.water
Phase-1 volume fraction = 0.124619  Min(alpha.water) = -8.78517e-06  Max(alpha.water) = 1
DICPCG:  Solving for p_rgh, Initial residual = 0.0279603, Final residual = 0.00105964, No Iterations 2
time step continuity errors : sum local = 0.00168119, global = 8.39851e-07, cumulative = -7.57851e-05
DICPCG:  Solving for p_rgh, Initial residual = 0.00127572, Final residual = 5.77416e-05, No Iterations 11
time step continuity errors : sum local = 9.06756e-05, global = -4.16517e-06, cumulative = -7.99503e-05
DICPCG:  Solving for p_rgh, Initial residual = 0.000282065, Final residual = 9.57846e-08, No Iterations 39
time step continuity errors : sum local = 1.48486e-07, global = 2.06534e-08, cumulative = -7.99296e-05
ExecutionTime = 0.5 s  ClockTime = 1 s

Courant Number mean: 0.113378 max: 0.981472
Interface Courant Number mean: 0.0206815 max: 0.981472
deltaT = 0.0025
Time = 0.1925

PIMPLE: iteration 1
smoothSolver:  Solving for alpha.water, Initial residual = 0.00477343, Final residual = 2.53624e-09, No Iterations 3
Phase-1 volume fraction = 0.124619  Min(alpha.water) = -1.21076e-11  Max(alpha.water) = 1
MULES: Correcting alpha.water
MULES: Correcting alpha.water
Phase-1 volume fraction = 0.124619  Min(alpha.water) = -1.10697e-05  Max(alpha.water) = 1
DICPCG:  Solving for p_rgh, Initial residual = 0.0292494, Final residual = 0.00115523, No Iterations 2
time step continuity errors : sum local = 0.00180895, global = 1.08045e-06, cumulative = -7.88492e-05
DICPCG:  Solving for p_rgh, Initial residual = 0.00138749, Final residual = 5.58307e-05, No Iterations 11
time step continuity errors : sum local = 8.65737e-05, global = -1.38936e-06, cumulative = -8.02385e-05
DICPCG:  Solving for p_rgh, Initial residual = 0.000307355, Final residual = 8.50069e-08, No Iterations 54
time step continuity errors : sum local = 1.30361e-07, global = -4.78876e-09, cumulative = -8.02433e-05
ExecutionTime = 0.51 s  ClockTime = 1 s

Courant Number mean: 0.114876 max: 0.979598
Interface Courant Number mean: 0.0212623 max: 0.979598
deltaT = 0.0025
Time = 0.195

PIMPLE: iteration 1
smoothSolver:  Solving for alpha.water, Initial residual = 0.00484552, Final residual = 2.14099e-09, No Iterations 3
Phase-1 volume fraction = 0.124619  Min(alpha.water) = -1.16323e-11  Max(alpha.water) = 1
MULES: Correcting alpha.water
MULES: Correcting alpha.water
Phase-1 volume fraction = 0.124619  Min(alpha.water) = -7.10517e-06  Max(alpha.water) = 1
DICPCG:  Solving for p_rgh, Initial residual = 0.0301199, Final residual = 0.0011683, No Iterations 2
time step continuity errors : sum local = 0.00182094, global = 1.17583e-06, cumulative = -7.90675e-05
[...]
time step continuity errors : sum local = 2.63921e-07, global = -7.58053e-09, cumulative = 0.00733852
ExecutionTime = 2.82 s  ClockTime = 3 s

Courant Number mean: 0.189095 max: 1.00422
Interface Courant Number mean: 0.0273531 max: 0.715071
deltaT = 0.005
Time = 0.91

PIMPLE: iteration 1
smoothSolver:  Solving for alpha.water, Initial residual = 0.00372028, Final residual = 2.73177e-10, No Iterations 4
Phase-1 volume fraction = 0.118338  Min(alpha.water) = -3.13125e-07  Max(alpha.water) = 1
MULES: Correcting alpha.water
MULES: Correcting alpha.water
Phase-1 volume fraction = 0.118338  Min(alpha.water) = -3.13123e-07  Max(alpha.water) = 1
DICPCG:  Solving for p_rgh, Initial residual = 0.0202228, Final residual = 0.000510109, No Iterations 2
time step continuity errors : sum local = 0.00160099, global = 6.52458e-06, cumulative = 0.00734504
DICPCG:  Solving for p_rgh, Initial residual = 0.00058129, Final residual = 2.77393e-05, No Iterations 9
time step continuity errors : sum local = 8.66123e-05, global = -2.50163e-06, cumulative = 0.00734254
DICPCG:  Solving for p_rgh, Initial residual = 8.97025e-05, Final residual = 9.93321e-08, No Iterations 39
time step continuity errors : sum local = 3.10009e-07, global = 6.50636e-08, cumulative = 0.00734261
ExecutionTime = 2.83 s  ClockTime = 3 s

Courant Number mean: 0.186456 max: 0.992736
Interface Courant Number mean: 0.0272699 max: 0.784111
deltaT = 0.005
Time = 0.915

PIMPLE: iteration 1
smoothSolver:  Solving for alpha.water, Initial residual = 0.00375671, Final residual = 3.958e-10, No Iterations 4
Phase-1 volume fraction = 0.118338  Min(alpha.water) = -2.59905e-07  Max(alpha.water) = 1
MULES: Correcting alpha.water
MULES: Correcting alpha.water
Phase-1 volume fraction = 0.118338  Min(alpha.water) = -2.59904e-07  Max(alpha.water) = 1
DICPCG:  Solving for p_rgh, Initial residual = 0.0189524, Final residual = 0.000554126, No Iterations 2
time step continuity errors : sum local = 0.00171744, global = 6.37307e-06, cumulative = 0.00734898
DICPCG:  Solving for p_rgh, Initial residual = 0.000622769, Final residual = 2.69358e-05, No Iterations 9
time step continuity errors : sum local = 8.30689e-05, global = -3.31143e-06, cumulative = 0.00734567
DICPCG:  Solving for p_rgh, Initial residual = 9.2166e-05, Final residual = 9.597e-08, No Iterations 34
time step continuity errors : sum local = 2.95858e-07, global = 6.58056e-08, cumulative = 0.00734574
ExecutionTime = 2.83 s  ClockTime = 3 s

Courant Number mean: 0.18392 max: 0.975497
Interface Courant Number mean: 0.0275019 max: 0.773273
deltaT = 0.005
Time = 0.92

PIMPLE: iteration 1
smoothSolver:  Solving for alpha.water, Initial residual = 0.00377907, Final residual = 5.35887e-10, No Iterations 4
Phase-1 volume fraction = 0.118338  Min(alpha.water) = -2.14902e-07  Max(alpha.water) = 1
MULES: Correcting alpha.water
MULES: Correcting alpha.water
Phase-1 volume fraction = 0.118338  Min(alpha.water) = -2.14902e-07  Max(alpha.water) = 1
DICPCG:  Solving for p_rgh, Initial residual = 0.0183712, Final residual = 0.000522882, No Iterations 2
time step continuity errors : sum local = 0.00169107, global = 6.16706e-06, cumulative = 0.0073519
DICPCG:  Solving for p_rgh, Initial residual = 0.000592995, Final residual = 2.70813e-05, No Iterations 9
time step continuity errors : sum local = 8.69868e-05, global = -2.73566e-06, cumulative = 0.00734917
DICPCG:  Solving for p_rgh, Initial residual = 9.00428e-05, Final residual = 8.67384e-08, No Iterations 47
time step continuity errors : sum local = 2.78488e-07, global = -7.6106e-09, cumulative = 0.00734916
ExecutionTime = 2.84 s  ClockTime = 3 s

Courant Number mean: 0.181728 max: 0.952818
Interface Courant Number mean: 0.027368 max: 0.749429
deltaT = 0.005
Time = 0.925

PIMPLE: iteration 1
smoothSolver:  Solving for alpha.water, Initial residual = 0.00374874, Final residual = 6.42819e-10, No Iterations 4
Phase-1 volume fraction = 0.118338  Min(alpha.water) = -1.7606e-07  Max(alpha.water) = 1
MULES: Correcting alpha.water
MULES: Correcting alpha.water
Phase-1 volume fraction = 0.118338  Min(alpha.water) = -1.7606e-07  Max(alpha.water) = 1
DICPCG:  Solving for p_rgh, Initial residual = 0.0178333, Final residual = 0.000478534, No Iterations 2
time step continuity errors : sum local = 0.00158162, global = 5.67911e-06, cumulative = 0.00735484
DICPCG:  Solving for p_rgh, Initial residual = 0.000543258, Final residual = 2.23249e-05, No Iterations 8
time step continuity errors : sum local = 7.32584e-05, global = -3.66011e-06, cumulative = 0.00735118
DICPCG:  Solving for p_rgh, Initial residual = 8.60695e-05, Final residual = 8.59145e-08, No Iterations 46
time step continuity errors : sum local = 2.81894e-07, global = -1.07413e-08, cumulative = 0.00735117
ExecutionTime = 2.86 s  ClockTime = 3 s

Courant Number mean: 0.179774 max: 0.938096
Interface Courant Number mean: 0.0271352 max: 0.729786
deltaT = 0.005
Time = 0.93

PIMPLE: iteration 1
smoothSolver:  Solving for alpha.water, Initial residual = 0.00366607, Final residual = 6.43651e-10, No Iterations 4
Phase-1 volume fraction = 0.118338  Min(alpha.water) = -1.42327e-07  Max(alpha.water) = 1
MULES: Correcting alpha.water
MULES: Correcting alpha.water
Phase-1 volume fraction = 0.118338  Min(alpha.water) = -1.42327e-07  Max(alpha.water) = 1
DICPCG:  Solving for p_rgh, Initial residual = 0.0180762, Final residual = 0.000433616, No Iterations 2
time step continuity errors : sum local = 0.00148939, global = 5.72542e-06, cumulative = 0.00735689
DICPCG:  Solving for p_rgh, Initial residual = 0.000495504, Final residual = 1.96837e-05, No Iterations 8
time step continuity errors : sum local = 6.70229e-05, global = -3.97661e-06, cumulative = 0.00735292
DICPCG:  Solving for p_rgh, Initial residual = 8.15735e-05, Final residual = 9.41824e-08, No Iterations 26
time step continuity errors : sum local = 3.2065e-07, global = 2.94352e-08, cumulative = 0.00735295
ExecutionTime = 2.86 s  ClockTime = 3 s

Courant Number mean: 0.178003 max: 0.927951
Interface Courant Number mean: 0.0268353 max: 0.706435
deltaT = 0.005
Time = 0.935

PIMPLE: iteration 1
smoothSolver:  Solving for alpha.water, Initial residual = 0.00364694, Final residual = 5.87995e-10, No Iterations 4
Phase-1 volume fraction = 0.118338  Min(alpha.water) = -1.12596e-07  Max(alpha.water) = 1
MULES: Correcting alpha.water
MULES: Correcting alpha.water
Phase-1 volume fraction = 0.118338  Min(alpha.water) = -1.12596e-07  Max(alpha.water) = 1
DICPCG:  Solving for p_rgh, Initial residual = 0.017136, Final residual = 0.000426093, No Iterations 2
time step continuity errors : sum local = 0.00143786, global = 5.74097e-06, cumulative = 0.00735869
DICPCG:  Solving for p_rgh, Initial residual = 0.000491412, Final residual = 2.10939e-05, No Iterations 8
time step continuity errors : sum local = 7.06289e-05, global = -4.74172e-06, cumulative = 0.00735394
DICPCG:  Solving for p_rgh, Initial residual = 8.15183e-05, Final residual = 7.69404e-08, No Iterations 46
time step continuity errors : sum local = 2.57573e-07, global = -2.36078e-08, cumulative = 0.00735392
ExecutionTime = 2.87 s  ClockTime = 3 s

Courant Number mean: 0.176467 max: 0.913356
Interface Courant Number mean: 0.0262175 max: 0.682273
deltaT = 0.005
Time = 0.94

PIMPLE: iteration 1
smoothSolver:  Solving for alpha.water, Initial residual = 0.00364543, Final residual = 5.26611e-10, No Iterations 4
Phase-1 volume fraction = 0.118338  Min(alpha.water) = -8.69406e-08  Max(alpha.water) = 1
MULES: Correcting alpha.water
MULES: Correcting alpha.water
Phase-1 volume fraction = 0.118338  Min(alpha.water) = -8.69406e-08  Max(alpha.water) = 1
DICPCG:  Solving for p_rgh, Initial residual = 0.0164216, Final residual = 0.00042954, No Iterations 2
time step continuity errors : sum local = 0.00145061, global = 5.18781e-06, cumulative = 0.00735911
DICPCG:  Solving for p_rgh, Initial residual = 0.000492886, Final residual = 2.06529e-05, No Iterations 8
time step continuity errors : sum local = 6.93351e-05, global = -4.94738e-06, cumulative = 0.00735416
DICPCG:  Solving for p_rgh, Initial residual = 7.99001e-05, Final residual = 7.48255e-08, No Iterations 46
time step continuity errors : sum local = 2.51142e-07, global = -2.15186e-08, cumulative = 0.00735414
ExecutionTime = 2.87 s  ClockTime = 3 s

Courant Number mean: 0.175189 max: 0.894207
Interface Courant Number mean: 0.026674 max: 0.665385
deltaT = 0.005
Time = 0.945

PIMPLE: iteration 1
smoothSolver:  Solving for alpha.water, Initial residual = 0.00359914, Final residual = 4.5223e-10, No Iterations 4
Phase-1 volume fraction = 0.118338  Min(alpha.water) = -6.48699e-08  Max(alpha.water) = 1
MULES: Correcting alpha.water
MULES: Correcting alpha.water
Phase-1 volume fraction = 0.118338  Min(alpha.water) = -6.47588e-08  Max(alpha.water) = 1
DICPCG:  Solving for p_rgh, Initial residual = 0.016014, Final residual = 0.000408685, No Iterations 2
time step continuity errors : sum local = 0.00140352, global = 4.56617e-06, cumulative = 0.00735871
DICPCG:  Solving for p_rgh, Initial residual = 0.00047274, Final residual = 1.78228e-05, No Iterations 8
time step continuity errors : sum local = 6.07437e-05, global = -4.56654e-06, cumulative = 0.00735414
DICPCG:  Solving for p_rgh, Initial residual = 7.56287e-05, Final residual = 9.85162e-08, No Iterations 45
time step continuity errors : sum local = 3.35727e-07, global = -2.7991e-08, cumulative = 0.00735411
ExecutionTime = 2.88 s  ClockTime = 3 s

Courant Number mean: 0.17419 max: 0.870561
Interface Courant Number mean: 0.0269224 max: 0.609183
deltaT = 0.005
Time = 0.95

PIMPLE: iteration 1
smoothSolver:  Solving for alpha.water, Initial residual = 0.00353285, Final residual = 3.86628e-10, No Iterations 4
Phase-1 volume fraction = 0.118338  Min(alpha.water) = -4.61137e-08  Max(alpha.water) = 1
MULES: Correcting alpha.water
MULES: Correcting alpha.water
Phase-1 volume fraction = 0.118338  Min(alpha.water) = -4.61137e-08  Max(alpha.water) = 1
DICPCG:  Solving for p_rgh, Initial residual = 0.0180333, Final residual = 0.000389195, No Iterations 2
time step continuity errors : sum local = 0.00135714, global = 4.1972e-06, cumulative = 0.00735831
DICPCG:  Solving for p_rgh, Initial residual = 0.000457285, Final residual = 2.26349e-05, No Iterations 7
time step continuity errors : sum local = 7.82406e-05, global = -2.86286e-06, cumulative = 0.00735545
DICPCG:  Solving for p_rgh, Initial residual = 7.53562e-05, Final residual = 8.05142e-08, No Iterations 46
time step continuity errors : sum local = 2.78294e-07, global = -1.84021e-08, cumulative = 0.00735543
ExecutionTime = 2.89 s  ClockTime = 3 s

Courant Number mean: 0.173317 max: 0.84457
Interface Courant Number mean: 0.0272099 max: 0.615269
deltaT = 0.00625
Time = 0.95625

PIMPLE: iteration 1
smoothSolver:  Solving for alpha.water, Initial residual = 0.0043979, Final residual = 1.43369e-09, No Iterations 4
Phase-1 volume fraction = 0.118338  Min(alpha.water) = -1.79353e-08  Max(alpha.water) = 1
MULES: Correcting alpha.water
MULES: Correcting alpha.water
Phase-1 volume fraction = 0.118338  Min(alpha.water) = -2.48569e-08  Max(alpha.water) = 1
DICPCG:  Solving for p_rgh, Initial residual = 0.0216973, Final residual = 0.000424799, No Iterations 2
time step continuity errors : sum local = 0.00223257, global = 6.65804e-06, cumulative = 0.00736209
DICPCG:  Solving for p_rgh, Initial residual = 0.000519297, Final residual = 2.14479e-05, No Iterations 7
time step continuity errors : sum local = 0.000111405, global = -2.44661e-06, cumulative = 0.00735964
DICPCG:  Solving for p_rgh, Initial residual = 9.56335e-05, Final residual = 9.08795e-08, No Iterations 29
time step continuity errors : sum local = 4.72012e-07, global = -1.17811e-07, cumulative = 0.00735952
ExecutionTime = 2.9 s  ClockTime = 3 s

Courant Number mean: 0.215475 max: 1.01824
Interface Courant Number mean: 0.0341806 max: 0.639011
deltaT = 0.00625
Time = 0.9625

PIMPLE: iteration 1
smoothSolver:  Solving for alpha.water, Initial residual = 0.00451333, Final residual = 9.55571e-10, No Iterations 4
Phase-1 volume fraction = 0.118338  Min(alpha.water) = -4.87849e-16  Max(alpha.water) = 1
MULES: Correcting alpha.water
MULES: Correcting alpha.water
Phase-1 volume fraction = 0.118338  Min(alpha.water) = -2.54247e-09  Max(alpha.water) = 1
DICPCG:  Solving for p_rgh, Initial residual = 0.0195388, Final residual = 0.000426122, No Iterations 2
time step continuity errors : sum local = 0.00216262, global = 6.99397e-06, cumulative = 0.00736652
DICPCG:  Solving for p_rgh, Initial residual = 0.000521619, Final residual = 2.52242e-05, No Iterations 6
time step continuity errors : sum local = 0.000126765, global = -6.88274e-07, cumulative = 0.00736583
DICPCG:  Solving for p_rgh, Initial residual = 9.4886e-05, Final residual = 8.63709e-08, No Iterations 33
time step continuity errors : sum local = 4.34114e-07, global = 9.43199e-08, cumulative = 0.00736592
ExecutionTime = 2.9 s  ClockTime = 3 s

Courant Number mean: 0.214489 max: 0.977276
Interface Courant Number mean: 0.0355648 max: 0.625764
deltaT = 0.00625
Time = 0.96875

PIMPLE: iteration 1
smoothSolver:  Solving for alpha.water, Initial residual = 0.00458673, Final residual = 6.25566e-10, No Iterations 4
Phase-1 volume fraction = 0.118338  Min(alpha.water) = -2.31887e-09  Max(alpha.water) = 1
MULES: Correcting alpha.water
MULES: Correcting alpha.water
Phase-1 volume fraction = 0.118338  Min(alpha.water) = -4.37816e-09  Max(alpha.water) = 1
DICPCG:  Solving for p_rgh, Initial residual = 0.0186489, Final residual = 0.000487148, No Iterations 2
time step continuity errors : sum local = 0.00237245, global = 7.24826e-06, cumulative = 0.00737317
DICPCG:  Solving for p_rgh, Initial residual = 0.000586897, Final residual = 2.56709e-05, No Iterations 6
time step continuity errors : sum local = 0.000124153, global = -1.87223e-06, cumulative = 0.0073713
DICPCG:  Solving for p_rgh, Initial residual = 9.66926e-05, Final residual = 8.66871e-08, No Iterations 44
time step continuity errors : sum local = 4.19314e-07, global = 2.17694e-08, cumulative = 0.00737132
ExecutionTime = 2.91 s  ClockTime = 3 s

Courant Number mean: 0.214062 max: 0.9785
Interface Courant Number mean: 0.0360304 max: 0.666516
deltaT = 0.00625
Time = 0.975

PIMPLE: iteration 1
smoothSolver:  Solving for alpha.water, Initial residual = 0.0046021, Final residual = 4.35667e-10, No Iterations 4
Phase-1 volume fraction = 0.118338  Min(alpha.water) = -2.24195e-09  Max(alpha.water) = 1
MULES: Correcting alpha.water
MULES: Correcting alpha.water
Phase-1 volume fraction = 0.118338  Min(alpha.water) = -5.02399e-09  Max(alpha.water) = 1
DICPCG:  Solving for p_rgh, Initial residual = 0.023609, Final residual = 0.000517987, No Iterations 2
time step continuity errors : sum local = 0.00250233, global = 7.44952e-06, cumulative = 0.00737877
DICPCG:  Solving for p_rgh, Initial residual = 0.000627011, Final residual = 2.45616e-05, No Iterations 7
time step continuity errors : sum local = 0.000117347, global = -8.82074e-07, cumulative = 0.00737789
DICPCG:  Solving for p_rgh, Initial residual = 0.000103557, Final residual = 8.00434e-08, No Iterations 45
time step continuity errors : sum local = 3.82416e-07, global = 1.10804e-08, cumulative = 0.0073779
ExecutionTime = 2.92 s  ClockTime = 3 s

Courant Number mean: 0.21405 max: 0.988329
Interface Courant Number mean: 0.0367623 max: 0.614308
deltaT = 0.00625
Time = 0.98125

PIMPLE: iteration 1
smoothSolver:  Solving for alpha.water, Initial residual = 0.00472925, Final residual = 3.6094e-10, No Iterations 4
Phase-1 volume fraction = 0.118338  Min(alpha.water) = -4.05098e-16  Max(alpha.water) = 1
MULES: Correcting alpha.water
MULES: Correcting alpha.water
Phase-1 volume fraction = 0.118338  Min(alpha.water) = -1.95651e-09  Max(alpha.water) = 1
DICPCG:  Solving for p_rgh, Initial residual = 0.0210343, Final residual = 0.000515235, No Iterations 2
time step continuity errors : sum local = 0.00243756, global = 6.52357e-06, cumulative = 0.00738442
DICPCG:  Solving for p_rgh, Initial residual = 0.000615427, Final residual = 2.91078e-05, No Iterations 6
time step continuity errors : sum local = 0.000136482, global = 4.2609e-06, cumulative = 0.00738868
DICPCG:  Solving for p_rgh, Initial residual = 0.000105089, Final residual = 9.55113e-08, No Iterations 41
time step continuity errors : sum local = 4.47831e-07, global = 6.29969e-08, cumulative = 0.00738874
ExecutionTime = 2.93 s  ClockTime = 3 s

Courant Number mean: 0.214611 max: 0.983727
Interface Courant Number mean: 0.0385066 max: 0.711466
deltaT = 0.00625
Time = 0.9875

PIMPLE: iteration 1
smoothSolver:  Solving for alpha.water, Initial residual = 0.0047669, Final residual = 3.48916e-10, No Iterations 4
Phase-1 volume fraction = 0.118338  Min(alpha.water) = -3.81775e-16  Max(alpha.water) = 1
MULES: Correcting alpha.water
MULES: Correcting alpha.water
Phase-1 volume fraction = 0.118338  Min(alpha.water) = -9.52162e-11  Max(alpha.water) = 1
DICPCG:  Solving for p_rgh, Initial residual = 0.0201263, Final residual = 0.000623466, No Iterations 2
time step continuity errors : sum local = 0.0029015, global = 2.67689e-09, cumulative = 0.00738875
DICPCG:  Solving for p_rgh, Initial residual = 0.000730499, Final residual = 2.78593e-05, No Iterations 7
time step continuity errors : sum local = 0.000128829, global = 5.34247e-07, cumulative = 0.00738928
DICPCG:  Solving for p_rgh, Initial residual = 0.000120954, Final residual = 8.44109e-08, No Iterations 46
time step continuity errors : sum local = 3.90352e-07, global = 3.25411e-09, cumulative = 0.00738929
ExecutionTime = 2.93 s  ClockTime = 3 s

Courant Number mean: 0.215425 max: 0.992664
Interface Courant Number mean: 0.0406181 max: 0.658535
deltaT = 0.00625
Time = 0.99375

PIMPLE: iteration 1
smoothSolver:  Solving for alpha.water, Initial residual = 0.00484181, Final residual = 3.21221e-10, No Iterations 4
Phase-1 volume fraction = 0.118338  Min(alpha.water) = -3.60255e-16  Max(alpha.water) = 1
MULES: Correcting alpha.water
MULES: Correcting alpha.water
Phase-1 volume fraction = 0.118338  Min(alpha.water) = -1.28789e-08  Max(alpha.water) = 1
DICPCG:  Solving for p_rgh, Initial residual = 0.0240613, Final residual = 0.000581792, No Iterations 2
time step continuity errors : sum local = 0.00267977, global = 6.93507e-06, cumulative = 0.00739622
DICPCG:  Solving for p_rgh, Initial residual = 0.000697928, Final residual = 2.66589e-05, No Iterations 7
time step continuity errors : sum local = 0.000121293, global = 1.21143e-05, cumulative = 0.00740833
DICPCG:  Solving for p_rgh, Initial residual = 0.000123289, Final residual = 9.84687e-08, No Iterations 42
time step continuity errors : sum local = 4.48145e-07, global = -9.57289e-09, cumulative = 0.00740832
ExecutionTime = 2.94 s  ClockTime = 3 s

Courant Number mean: 0.216458 max: 0.994644
Interface Courant Number mean: 0.0419596 max: 0.668485
deltaT = 0.00625
Time = 1

PIMPLE: iteration 1
smoothSolver:  Solving for alpha.water, Initial residual = 0.00492334, Final residual = 9.239e-09, No Iterations 3
Phase-1 volume fraction = 0.118338  Min(alpha.water) = -3.40317e-16  Max(alpha.water) = 1
MULES: Correcting alpha.water
MULES: Correcting alpha.water
Phase-1 volume fraction = 0.118338  Min(alpha.water) = -6.95649e-09  Max(alpha.water) = 1
DICPCG:  Solving for p_rgh, Initial residual = 0.0226226, Final residual = 0.000781216, No Iterations 2
time step continuity errors : sum local = 0.00347759, global = 6.38655e-06, cumulative = 0.00741471
DICPCG:  Solving for p_rgh, Initial residual = 0.000901475, Final residual = 3.48844e-05, No Iterations 7
time step continuity errors : sum local = 0.000154324, global = 1.81023e-05, cumulative = 0.00743281
DICPCG:  Solving for p_rgh, Initial residual = 0.000155427, Final residual = 9.65283e-08, No Iterations 45
time step continuity errors : sum local = 4.27009e-07, global = 2.40384e-08, cumulative = 0.00743284
ExecutionTime = 2.95 s  ClockTime = 3 s

End

