/*---------------------------------------------------------------------------*\
| =========                 |                                                 |
| \\      /  F ield         | OpenFOAM: The Open Source CFD Toolbox           |
|  \\    /   O peration     | Version:  2206                                  |
|   \\  /    A nd           | Website:  www.openfoam.com                      |
|    \\/     M anipulation  |                                                 |
\*---------------------------------------------------------------------------*/
Build  : _76d719d1-20220624 OPENFOAM=2206 version=2206
Arch   : "LSB;label=32;scalar=64"
Exec   : interFoam
Date   : Nov 28 2022
Time   : 17:08:11
Host   : LAPTOP-2J3LPIFO
PID    : 7518
I/O    : uncollated
Case   : /home/bepnos/PyFoamTesting/cloned-dambreak506
nProcs : 1
trapFpe: Floating point exception trapping enabled (FOAM_SIGFPE).
fileModificationChecking : Monitoring run-time modified files using timeStampMaster (fileModificationSkew 5, maxFileModificationPolls 20)
allowSystemOperations : Allowing user-supplied system call operations

// * * * * * * * * * * * * * * * * * * * * * * * * * * * * * * * * * * * * * //
Create time

Create mesh for time = 0


PIMPLE: Operating solver in PISO mode

Reading field p_rgh

Reading field U

Reading/calculating face flux field phi

Reading transportProperties

Selecting incompressible transport model Newtonian
Selecting incompressible transport model Newtonian
Selecting turbulence model type laminar
Selecting laminar stress model Stokes

Reading g

Reading hRef
Calculating field g.h

No MRF models present

No finite volume options present
DICPCG:  Solving for pcorr, Initial residual = 0, Final residual = 0, No Iterations 0
time step continuity errors : sum local = 0, global = 0, cumulative = 0
Courant Number mean: 0 max: 0

Starting time loop

Sampled set:
    gauge_1 -> vtk
    gauge_2 -> vtk

Courant Number mean: 0 max: 0
Interface Courant Number mean: 0 max: 0
deltaT = 0.00119048
Time = 0.00119048

PIMPLE: iteration 1
smoothSolver:  Solving for alpha.water, Initial residual = 0, Final residual = 0, No Iterations 0
Phase-1 volume fraction = 0.1259  Min(alpha.water) = 0  Max(alpha.water) = 1
MULES: Correcting alpha.water
MULES: Correcting alpha.water
Phase-1 volume fraction = 0.1259  Min(alpha.water) = 0  Max(alpha.water) = 1
DICPCG:  Solving for p_rgh, Initial residual = 1, Final residual = 0.00785975, No Iterations 1
time step continuity errors : sum local = 0.00149644, global = -5.24426e-11, cumulative = -5.24426e-11
DICPCG:  Solving for p_rgh, Initial residual = 0.00344066, Final residual = 0.00014992, No Iterations 18
time step continuity errors : sum local = 6.52269e-05, global = -1.22731e-05, cumulative = -1.22732e-05
DICPCG:  Solving for p_rgh, Initial residual = 9.00076e-05, Final residual = 6.74067e-08, No Iterations 46
time step continuity errors : sum local = 4.88498e-08, global = 3.85003e-09, cumulative = -1.22693e-05
ExecutionTime = 0.03 s  ClockTime = 0 s

Courant Number mean: 0.000781705 max: 0.107109
Interface Courant Number mean: 0 max: 0
deltaT = 0.00140056
Time = 0.00259104

PIMPLE: iteration 1
smoothSolver:  Solving for alpha.water, Initial residual = 0.00011181, Final residual = 8.28057e-10, No Iterations 1
Phase-1 volume fraction = 0.1259  Min(alpha.water) = 0  Max(alpha.water) = 1
MULES: Correcting alpha.water
MULES: Correcting alpha.water
Phase-1 volume fraction = 0.1259  Min(alpha.water) = -1.46675e-16  Max(alpha.water) = 1
DICPCG:  Solving for p_rgh, Initial residual = 0.00203892, Final residual = 5.49334e-05, No Iterations 2
time step continuity errors : sum local = 5.27503e-05, global = 2.09777e-08, cumulative = -1.22483e-05
DICPCG:  Solving for p_rgh, Initial residual = 8.62737e-05, Final residual = 4.00436e-06, No Iterations 32
time step continuity errors : sum local = 3.84507e-06, global = 1.09484e-07, cumulative = -1.21389e-05
DICPCG:  Solving for p_rgh, Initial residual = 8.23274e-06, Final residual = 8.86644e-08, No Iterations 35
time step continuity errors : sum local = 8.52177e-08, global = 1.58955e-09, cumulative = -1.21373e-05
ExecutionTime = 0.04 s  ClockTime = 0 s

Courant Number mean: 0.00144248 max: 0.0606555
Interface Courant Number mean: 2.51968e-05 max: 0.0545845
deltaT = 0.00172377
Time = 0.0043148

PIMPLE: iteration 1
smoothSolver:  Solving for alpha.water, Initial residual = 9.83521e-05, Final residual = 6.89318e-10, No Iterations 1
Phase-1 volume fraction = 0.1259  Min(alpha.water) = 0  Max(alpha.water) = 1
MULES: Correcting alpha.water
MULES: Correcting alpha.water
Phase-1 volume fraction = 0.1259  Min(alpha.water) = -2.14531e-15  Max(alpha.water) = 1
DICPCG:  Solving for p_rgh, Initial residual = 0.00153574, Final residual = 3.26243e-05, No Iterations 2
time step continuity errors : sum local = 4.58032e-05, global = 3.95226e-09, cumulative = -1.21333e-05
DICPCG:  Solving for p_rgh, Initial residual = 3.25404e-05, Final residual = 1.39668e-06, No Iterations 34
time step continuity errors : sum local = 1.95962e-06, global = -1.48665e-07, cumulative = -1.2282e-05
DICPCG:  Solving for p_rgh, Initial residual = 1.7103e-06, Final residual = 9.21138e-08, No Iterations 18
time step continuity errors : sum local = 1.29452e-07, global = -4.67655e-08, cumulative = -1.23287e-05
ExecutionTime = 0.05 s  ClockTime = 0 s

Courant Number mean: 0.00286186 max: 0.0553507
Interface Courant Number mean: 2.40753e-05 max: 0.0457213
deltaT = 0.00206852
Time = 0.00638332

PIMPLE: iteration 1
smoothSolver:  Solving for alpha.water, Initial residual = 0.00014214, Final residual = 2.21092e-09, No Iterations 1
Phase-1 volume fraction = 0.1259  Min(alpha.water) = 0  Max(alpha.water) = 1
MULES: Correcting alpha.water
MULES: Correcting alpha.water
Phase-1 volume fraction = 0.1259  Min(alpha.water) = -1.47814e-12  Max(alpha.water) = 1
DICPCG:  Solving for p_rgh, Initial residual = 0.00208954, Final residual = 9.59738e-05, No Iterations 1
time step continuity errors : sum local = 0.000187716, global = -1.15332e-07, cumulative = -1.24441e-05
DICPCG:  Solving for p_rgh, Initial residual = 9.83777e-05, Final residual = 4.33754e-06, No Iterations 16
time step continuity errors : sum local = 8.47179e-06, global = -8.47824e-07, cumulative = -1.32919e-05
DICPCG:  Solving for p_rgh, Initial residual = 4.62884e-06, Final residual = 8.69135e-08, No Iterations 32
time step continuity errors : sum local = 1.70137e-07, global = -8.81403e-09, cumulative = -1.33007e-05
ExecutionTime = 0.05 s  ClockTime = 0 s

Courant Number mean: 0.00514892 max: 0.0717525
Interface Courant Number mean: 0.000121005 max: 0.0577026
deltaT = 0.00265953
Time = 0.00904285

PIMPLE: iteration 1
smoothSolver:  Solving for alpha.water, Initial residual = 0.000249263, Final residual = 3.39697e-13, No Iterations 2
Phase-1 volume fraction = 0.1259  Min(alpha.water) = 0  Max(alpha.water) = 1
MULES: Correcting alpha.water
MULES: Correcting alpha.water
Phase-1 volume fraction = 0.1259  Min(alpha.water) = -2.26116e-11  Max(alpha.water) = 1
DICPCG:  Solving for p_rgh, Initial residual = 0.00358992, Final residual = 0.000127314, No Iterations 1
time step continuity errors : sum local = 0.000399881, global = 9.89217e-08, cumulative = -1.32018e-05
DICPCG:  Solving for p_rgh, Initial residual = 0.000130046, Final residual = 4.75821e-06, No Iterations 16
time step continuity errors : sum local = 1.49039e-05, global = -4.21446e-07, cumulative = -1.36232e-05
DICPCG:  Solving for p_rgh, Initial residual = 5.32911e-06, Final residual = 6.88224e-08, No Iterations 34
time step continuity errors : sum local = 2.16244e-07, global = -8.13815e-09, cumulative = -1.36314e-05
ExecutionTime = 0.06 s  ClockTime = 0 s

Courant Number mean: 0.00943159 max: 0.110664
Interface Courant Number mean: 0.000266617 max: 0.0852568
deltaT = 0.00319143
Time = 0.0122343

PIMPLE: iteration 1
smoothSolver:  Solving for alpha.water, Initial residual = 0.000404806, Final residual = 3.01532e-12, No Iterations 2
Phase-1 volume fraction = 0.1259  Min(alpha.water) = 0  Max(alpha.water) = 1
MULES: Correcting alpha.water
MULES: Correcting alpha.water
Phase-1 volume fraction = 0.1259  Min(alpha.water) = -1.63953e-10  Max(alpha.water) = 1
DICPCG:  Solving for p_rgh, Initial residual = 0.00575434, Final residual = 0.000161602, No Iterations 1
time step continuity errors : sum local = 0.000713039, global = 5.88673e-08, cumulative = -1.35725e-05
DICPCG:  Solving for p_rgh, Initial residual = 0.000165079, Final residual = 6.40006e-06, No Iterations 16
time step continuity errors : sum local = 2.81063e-05, global = -3.93459e-07, cumulative = -1.3966e-05
DICPCG:  Solving for p_rgh, Initial residual = 7.81288e-06, Final residual = 8.05406e-08, No Iterations 35
time step continuity errors : sum local = 3.5524e-07, global = -1.34986e-08, cumulative = -1.39795e-05
ExecutionTime = 0.06 s  ClockTime = 0 s

Courant Number mean: 0.0152873 max: 0.166629
Interface Courant Number mean: 0.000611024 max: 0.117014
deltaT = 0.00425524
Time = 0.0164895

PIMPLE: iteration 1
smoothSolver:  Solving for alpha.water, Initial residual = 0.000705098, Final residual = 3.44554e-11, No Iterations 2
Phase-1 volume fraction = 0.1259  Min(alpha.water) = 0  Max(alpha.water) = 1
MULES: Correcting alpha.water
MULES: Correcting alpha.water
Phase-1 volume fraction = 0.1259  Min(alpha.water) = -1.06046e-09  Max(alpha.water) = 1
DICPCG:  Solving for p_rgh, Initial residual = 0.00985655, Final residual = 0.000219683, No Iterations 1
time step continuity errors : sum local = 0.00167089, global = 1.64437e-07, cumulative = -1.3815e-05
DICPCG:  Solving for p_rgh, Initial residual = 0.000225956, Final residual = 8.87855e-06, No Iterations 16
time step continuity errors : sum local = 6.69637e-05, global = -3.26435e-07, cumulative = -1.41415e-05
DICPCG:  Solving for p_rgh, Initial residual = 1.34989e-05, Final residual = 7.3793e-08, No Iterations 37
time step continuity errors : sum local = 5.59646e-07, global = -2.12986e-08, cumulative = -1.41628e-05
ExecutionTime = 0.07 s  ClockTime = 0 s

Courant Number mean: 0.0273555 max: 0.274571
Interface Courant Number mean: 0.00131347 max: 0.180092
deltaT = 0.00425524
Time = 0.0207448

PIMPLE: iteration 1
smoothSolver:  Solving for alpha.water, Initial residual = 0.000920815, Final residual = 9.79058e-11, No Iterations 2
Phase-1 volume fraction = 0.1259  Min(alpha.water) = 0  Max(alpha.water) = 1
MULES: Correcting alpha.water
MULES: Correcting alpha.water
Phase-1 volume fraction = 0.1259  Min(alpha.water) = -2.43224e-09  Max(alpha.water) = 1
DICPCG:  Solving for p_rgh, Initial residual = 0.0128061, Final residual = 0.000239598, No Iterations 1
time step continuity errors : sum local = 0.00177597, global = 1.76929e-07, cumulative = -1.39858e-05
DICPCG:  Solving for p_rgh, Initial residual = 0.000248581, Final residual = 1.10462e-05, No Iterations 16
time step continuity errors : sum local = 8.09726e-05, global = 1.10968e-06, cumulative = -1.28761e-05
DICPCG:  Solving for p_rgh, Initial residual = 1.80066e-05, Final residual = 5.36002e-08, No Iterations 38
time step continuity errors : sum local = 3.95718e-07, global = -9.13532e-09, cumulative = -1.28853e-05
ExecutionTime = 0.08 s  ClockTime = 0 s

Courant Number mean: 0.0341595 max: 0.322429
Interface Courant Number mean: 0.00195571 max: 0.198714
deltaT = 0.00425524
Time = 0.025

PIMPLE: iteration 1
smoothSolver:  Solving for alpha.water, Initial residual = 0.00112778, Final residual = 2.10649e-10, No Iterations 2
Phase-1 volume fraction = 0.1259  Min(alpha.water) = 0  Max(alpha.water) = 1
MULES: Correcting alpha.water
MULES: Correcting alpha.water
Phase-1 volume fraction = 0.1259  Min(alpha.water) = -3.40401e-09  Max(alpha.water) = 1
DICPCG:  Solving for p_rgh, Initial residual = 0.0156507, Final residual = 0.000259754, No Iterations 1
time step continuity errors : sum local = 0.0018733, global = 2.15802e-07, cumulative = -1.26695e-05
DICPCG:  Solving for p_rgh, Initial residual = 0.000271403, Final residual = 1.17519e-05, No Iterations 16
time step continuity errors : sum local = 8.35762e-05, global = 2.77679e-06, cumulative = -9.89269e-06
DICPCG:  Solving for p_rgh, Initial residual = 2.12829e-05, Final residual = 7.13926e-08, No Iterations 38
time step continuity errors : sum local = 5.11342e-07, global = -5.59151e-09, cumulative = -9.89828e-06
ExecutionTime = 0.09 s  ClockTime = 0 s

Courant Number mean: 0.0408041 max: 0.365777
Interface Courant Number mean: 0.0023228 max: 0.215071
deltaT = 0.005
Time = 0.03

PIMPLE: iteration 1
smoothSolver:  Solving for alpha.water, Initial residual = 0.00156107, Final residual = 8.5751e-10, No Iterations 2
Phase-1 volume fraction = 0.1259  Min(alpha.water) = 0  Max(alpha.water) = 1
MULES: Correcting alpha.water
MULES: Correcting alpha.water
Phase-1 volume fraction = 0.1259  Min(alpha.water) = -4.69351e-09  Max(alpha.water) = 1
DICPCG:  Solving for p_rgh, Initial residual = 0.0215104, Final residual = 0.000335725, No Iterations 1
time step continuity errors : sum local = 0.0031969, global = 4.0565e-07, cumulative = -9.49263e-06
DICPCG:  Solving for p_rgh, Initial residual = 0.000354445, Final residual = 1.43223e-05, No Iterations 16
time step continuity errors : sum local = 0.000133712, global = 7.87468e-06, cumulative = -1.61796e-06
DICPCG:  Solving for p_rgh, Initial residual = 3.20946e-05, Final residual = 8.10533e-08, No Iterations 38
time step continuity errors : sum local = 7.62734e-07, global = 8.77117e-09, cumulative = -1.60919e-06
ExecutionTime = 0.1 s  ClockTime = 0 s

Courant Number mean: 0.0569186 max: 0.482508
Interface Courant Number mean: 0.00325705 max: 0.274418
deltaT = 0.00666667
Time = 0.0366667

PIMPLE: iteration 1
smoothSolver:  Solving for alpha.water, Initial residual = 0.00244733, Final residual = 6.48594e-09, No Iterations 2
Phase-1 volume fraction = 0.1259  Min(alpha.water) = 0  Max(alpha.water) = 1
MULES: Correcting alpha.water
MULES: Correcting alpha.water
Phase-1 volume fraction = 0.1259  Min(alpha.water) = -3.37114e-09  Max(alpha.water) = 1
DICPCG:  Solving for p_rgh, Initial residual = 0.0328498, Final residual = 0.000520349, No Iterations 1
time step continuity errors : sum local = 0.00817563, global = 1.18097e-06, cumulative = -4.28215e-07
DICPCG:  Solving for p_rgh, Initial residual = 0.000572459, Final residual = 2.25873e-05, No Iterations 16
time step continuity errors : sum local = 0.000343945, global = 2.73436e-05, cumulative = 2.69154e-05
DICPCG:  Solving for p_rgh, Initial residual = 6.62778e-05, Final residual = 9.50438e-08, No Iterations 42
time step continuity errors : sum local = 1.46461e-06, global = -1.66527e-07, cumulative = 2.67489e-05
ExecutionTime = 0.1 s  ClockTime = 0 s

Courant Number mean: 0.0916273 max: 0.723511
Interface Courant Number mean: 0.00579285 max: 0.398996
deltaT = 0.00666667
Time = 0.0433333

PIMPLE: iteration 1
smoothSolver:  Solving for alpha.water, Initial residual = 0.00293417, Final residual = 8.19823e-11, No Iterations 3
Phase-1 volume fraction = 0.1259  Min(alpha.water) = 0  Max(alpha.water) = 1
MULES: Correcting alpha.water
MULES: Correcting alpha.water
Phase-1 volume fraction = 0.1259  Min(alpha.water) = -7.32107e-09  Max(alpha.water) = 1
DICPCG:  Solving for p_rgh, Initial residual = 0.0376281, Final residual = 0.000671888, No Iterations 1
time step continuity errors : sum local = 0.00985138, global = 5.73824e-07, cumulative = 2.73227e-05
DICPCG:  Solving for p_rgh, Initial residual = 0.000752882, Final residual = 2.81738e-05, No Iterations 16
time step continuity errors : sum local = 0.000398287, global = 3.56347e-05, cumulative = 6.29574e-05
DICPCG:  Solving for p_rgh, Initial residual = 9.02042e-05, Final residual = 9.45648e-08, No Iterations 32
time step continuity errors : sum local = 1.36256e-06, global = 2.7182e-07, cumulative = 6.32292e-05
ExecutionTime = 0.11 s  ClockTime = 0 s

Courant Number mean: 0.106702 max: 0.78515
Interface Courant Number mean: 0.00768423 max: 0.42519
deltaT = 0.00666667
Time = 0.05

PIMPLE: iteration 1
smoothSolver:  Solving for alpha.water, Initial residual = 0.00340233, Final residual = 2.42072e-10, No Iterations 3
Phase-1 volume fraction = 0.1259  Min(alpha.water) = 0  Max(alpha.water) = 1
MULES: Correcting alpha.water
MULES: Correcting alpha.water
Phase-1 volume fraction = 0.1259  Min(alpha.water) = -2.15468e-08  Max(alpha.water) = 1
DICPCG:  Solving for p_rgh, Initial residual = 0.038052, Final residual = 0.000866925, No Iterations 1
time step continuity errors : sum local = 0.0118733, global = 1.26728e-06, cumulative = 6.44965e-05
DICPCG:  Solving for p_rgh, Initial residual = 0.00098455, Final residual = 4.4347e-05, No Iterations 16
time step continuity errors : sum local = 0.000585039, global = 5.7126e-05, cumulative = 0.000121623
DICPCG:  Solving for p_rgh, Initial residual = 0.000130791, Final residual = 6.37191e-08, No Iterations 52
time step continuity errors : sum local = 8.5964e-07, global = -3.11369e-08, cumulative = 0.000121591
ExecutionTime = 0.12 s  ClockTime = 0 s

Courant Number mean: 0.121463 max: 0.832957
Interface Courant Number mean: 0.00935412 max: 0.487214
deltaT = 0.00833333
Time = 0.0583333

PIMPLE: iteration 1
smoothSolver:  Solving for alpha.water, Initial residual = 0.00481368, Final residual = 3.96839e-09, No Iterations 3
Phase-1 volume fraction = 0.1259  Min(alpha.water) = 0  Max(alpha.water) = 1
MULES: Correcting alpha.water
MULES: Correcting alpha.water
Phase-1 volume fraction = 0.1259  Min(alpha.water) = -4.87655e-08  Max(alpha.water) = 1
DICPCG:  Solving for p_rgh, Initial residual = 0.0385613, Final residual = 0.00136912, No Iterations 1
time step continuity errors : sum local = 0.0268042, global = 8.34529e-07, cumulative = 0.000122426
DICPCG:  Solving for p_rgh, Initial residual = 0.00157432, Final residual = 4.25016e-05, No Iterations 17
time step continuity errors : sum local = 0.000799575, global = 3.95793e-07, cumulative = 0.000122822
DICPCG:  Solving for p_rgh, Initial residual = 0.000219333, Final residual = 8.44491e-08, No Iterations 53
time step continuity errors : sum local = 1.63552e-06, global = -1.17884e-07, cumulative = 0.000122704
ExecutionTime = 0.13 s  ClockTime = 0 s

Courant Number mean: 0.174562 max: 1.10067
Interface Courant Number mean: 0.0144742 max: 0.658941
deltaT = 0.00833333
Time = 0.0666667

PIMPLE: iteration 1
smoothSolver:  Solving for alpha.water, Initial residual = 0.00552654, Final residual = 3.68998e-10, No Iterations 4
Phase-1 volume fraction = 0.1259  Min(alpha.water) = 0  Max(alpha.water) = 1
MULES: Correcting alpha.water
MULES: Correcting alpha.water
Phase-1 volume fraction = 0.1259  Min(alpha.water) = -1.54788e-06  Max(alpha.water) = 1
DICPCG:  Solving for p_rgh, Initial residual = 0.0292883, Final residual = 0.000719141, No Iterations 2
time step continuity errors : sum local = 0.0133709, global = 1.77906e-06, cumulative = 0.000124483
DICPCG:  Solving for p_rgh, Initial residual = 0.000800182, Final residual = 3.15809e-05, No Iterations 17
time step continuity errors : sum local = 0.000568374, global = -7.79228e-06, cumulative = 0.000116691
DICPCG:  Solving for p_rgh, Initial residual = 0.00013004, Final residual = 9.70766e-08, No Iterations 53
time step continuity errors : sum local = 1.81613e-06, global = -1.95448e-08, cumulative = 0.000116671
ExecutionTime = 0.14 s  ClockTime = 0 s

Courant Number mean: 0.196493 max: 1.1511
Interface Courant Number mean: 0.0181258 max: 0.705777
deltaT = 0.00833333
Time = 0.075

PIMPLE: iteration 1
smoothSolver:  Solving for alpha.water, Initial residual = 0.00618317, Final residual = 2.85431e-09, No Iterations 4
Phase-1 volume fraction = 0.1259  Min(alpha.water) = -2.11601e-11  Max(alpha.water) = 1
MULES: Correcting alpha.water
MULES: Correcting alpha.water
Phase-1 volume fraction = 0.1259  Min(alpha.water) = -7.27392e-07  Max(alpha.water) = 1
DICPCG:  Solving for p_rgh, Initial residual = 0.0178052, Final residual = 0.000720446, No Iterations 2
time step continuity errors : sum local = 0.0132103, global = 9.72067e-07, cumulative = 0.000117643
DICPCG:  Solving for p_rgh, Initial residual = 0.000814659, Final residual = 3.1317e-05, No Iterations 17
time step continuity errors : sum local = 0.00056253, global = 1.35366e-06, cumulative = 0.000118997
DICPCG:  Solving for p_rgh, Initial residual = 0.000137587, Final residual = 8.96969e-08, No Iterations 43
time step continuity errors : sum local = 1.6731e-06, global = -2.91724e-07, cumulative = 0.000118705
ExecutionTime = 0.15 s  ClockTime = 0 s

Courant Number mean: 0.219094 max: 1.25042
Interface Courant Number mean: 0.0210513 max: 0.9563
deltaT = 0.00625
Time = 0.08125

PIMPLE: iteration 1
smoothSolver:  Solving for alpha.water, Initial residual = 0.00513791, Final residual = 1.47033e-09, No Iterations 4
Phase-1 volume fraction = 0.1259  Min(alpha.water) = -5.59398e-07  Max(alpha.water) = 1
MULES: Correcting alpha.water
MULES: Correcting alpha.water
Phase-1 volume fraction = 0.1259  Min(alpha.water) = -5.59398e-07  Max(alpha.water) = 1
DICPCG:  Solving for p_rgh, Initial residual = 0.0354936, Final residual = 0.00111297, No Iterations 1
time step continuity errors : sum local = 0.01293, global = -9.13159e-07, cumulative = 0.000117792
DICPCG:  Solving for p_rgh, Initial residual = 0.00126459, Final residual = 4.48562e-05, No Iterations 17
time step continuity errors : sum local = 0.000501101, global = 8.18292e-05, cumulative = 0.000199621
DICPCG:  Solving for p_rgh, Initial residual = 0.00017437, Final residual = 9.15425e-08, No Iterations 51
time step continuity errors : sum local = 1.04846e-06, global = 1.40081e-08, cumulative = 0.000199635
ExecutionTime = 0.16 s  ClockTime = 0 s

Courant Number mean: 0.175782 max: 0.992211
Interface Courant Number mean: 0.018103 max: 0.953342
deltaT = 0.00625
Time = 0.0875

PIMPLE: iteration 1
smoothSolver:  Solving for alpha.water, Initial residual = 0.00554958, Final residual = 3.37921e-09, No Iterations 4
Phase-1 volume fraction = 0.1259  Min(alpha.water) = -4.25282e-07  Max(alpha.water) = 1
MULES: Correcting alpha.water
MULES: Correcting alpha.water
Phase-1 volume fraction = 0.1259  Min(alpha.water) = -4.25282e-07  Max(alpha.water) = 1
DICPCG:  Solving for p_rgh, Initial residual = 0.0293153, Final residual = 0.000609519, No Iterations 2
time step continuity errors : sum local = 0.00681488, global = -1.31713e-06, cumulative = 0.000198318
DICPCG:  Solving for p_rgh, Initial residual = 0.000675052, Final residual = 2.76733e-05, No Iterations 18
time step continuity errors : sum local = 0.000298944, global = 7.19151e-06, cumulative = 0.000205509
DICPCG:  Solving for p_rgh, Initial residual = 0.000102795, Final residual = 9.34155e-08, No Iterations 51
time step continuity errors : sum local = 1.03879e-06, global = 6.66023e-08, cumulative = 0.000205576
ExecutionTime = 0.16 s  ClockTime = 0 s

Courant Number mean: 0.187011 max: 1.05
Interface Courant Number mean: 0.0187483 max: 1.05
deltaT = 0.00625
Time = 0.09375

PIMPLE: iteration 1
smoothSolver:  Solving for alpha.water, Initial residual = 0.00589165, Final residual = 6.70466e-09, No Iterations 4
Phase-1 volume fraction = 0.1259  Min(alpha.water) = -3.20348e-07  Max(alpha.water) = 1
MULES: Correcting alpha.water
MULES: Correcting alpha.water
Phase-1 volume fraction = 0.1259  Min(alpha.water) = -2.96043e-07  Max(alpha.water) = 1
DICPCG:  Solving for p_rgh, Initial residual = 0.0202439, Final residual = 0.000662833, No Iterations 2
time step continuity errors : sum local = 0.0072061, global = -1.31613e-07, cumulative = 0.000205444
DICPCG:  Solving for p_rgh, Initial residual = 0.000729717, Final residual = 3.13894e-05, No Iterations 18
time step continuity errors : sum local = 0.000333039, global = -5.27512e-06, cumulative = 0.000200169
DICPCG:  Solving for p_rgh, Initial residual = 0.000114423, Final residual = 9.81038e-08, No Iterations 43
time step continuity errors : sum local = 1.07038e-06, global = -3.22202e-07, cumulative = 0.000199847
ExecutionTime = 0.17 s  ClockTime = 0 s

Courant Number mean: 0.198086 max: 1.09991
Interface Courant Number mean: 0.0199724 max: 1.09991
deltaT = 0.00625
Time = 0.1

PIMPLE: iteration 1
smoothSolver:  Solving for alpha.water, Initial residual = 0.00622336, Final residual = 5.00802e-10, No Iterations 5
Phase-1 volume fraction = 0.1259  Min(alpha.water) = -2.21671e-07  Max(alpha.water) = 1
MULES: Correcting alpha.water
MULES: Correcting alpha.water
Phase-1 volume fraction = 0.1259  Min(alpha.water) = -2.21671e-07  Max(alpha.water) = 1
DICPCG:  Solving for p_rgh, Initial residual = 0.0200705, Final residual = 0.000600301, No Iterations 2
time step continuity errors : sum local = 0.00663021, global = -5.46938e-07, cumulative = 0.0001993
DICPCG:  Solving for p_rgh, Initial residual = 0.000664246, Final residual = 2.96117e-05, No Iterations 18
time step continuity errors : sum local = 0.00031948, global = 1.08363e-05, cumulative = 0.000210137
DICPCG:  Solving for p_rgh, Initial residual = 0.000108535, Final residual = 7.94622e-08, No Iterations 54
time step continuity errors : sum local = 8.7969e-07, global = -2.00639e-08, cumulative = 0.000210117
ExecutionTime = 0.18 s  ClockTime = 0 s

Courant Number mean: 0.208918 max: 1.15704
Interface Courant Number mean: 0.0225492 max: 1.15704
deltaT = 0.005
Time = 0.105

PIMPLE: iteration 1
smoothSolver:  Solving for alpha.water, Initial residual = 0.00535306, Final residual = 5.71359e-09, No Iterations 4
Phase-1 volume fraction = 0.1259  Min(alpha.water) = -1.73959e-07  Max(alpha.water) = 1
MULES: Correcting alpha.water
MULES: Correcting alpha.water
Phase-1 volume fraction = 0.1259  Min(alpha.water) = -1.73959e-07  Max(alpha.water) = 1
DICPCG:  Solving for p_rgh, Initial residual = 0.0294179, Final residual = 0.0012335, No Iterations 1
time step continuity errors : sum local = 0.00934351, global = -5.55933e-07, cumulative = 0.000209561
DICPCG:  Solving for p_rgh, Initial residual = 0.00136552, Final residual = 6.49434e-05, No Iterations 7
time step continuity errors : sum local = 0.00047659, global = 2.5994e-06, cumulative = 0.00021216
DICPCG:  Solving for p_rgh, Initial residual = 0.000187453, Final residual = 7.47576e-08, No Iterations 54
time step continuity errors : sum local = 5.48002e-07, global = 3.53213e-09, cumulative = 0.000212163
ExecutionTime = 0.19 s  ClockTime = 0 s

Courant Number mean: 0.173044 max: 0.971234
Interface Courant Number mean: 0.0184704 max: 0.971234
deltaT = 0.005
Time = 0.11

PIMPLE: iteration 1
smoothSolver:  Solving for alpha.water, Initial residual = 0.00568239, Final residual = 8.5761e-09, No Iterations 4
Phase-1 volume fraction = 0.1259  Min(alpha.water) = -1.35863e-07  Max(alpha.water) = 1
MULES: Correcting alpha.water
MULES: Correcting alpha.water
Phase-1 volume fraction = 0.1259  Min(alpha.water) = -1.35863e-07  Max(alpha.water) = 1
DICPCG:  Solving for p_rgh, Initial residual = 0.0224591, Final residual = 0.000567085, No Iterations 2
time step continuity errors : sum local = 0.00417445, global = -2.96992e-08, cumulative = 0.000212134
DICPCG:  Solving for p_rgh, Initial residual = 0.000622152, Final residual = 2.84223e-05, No Iterations 18
time step continuity errors : sum local = 0.000203935, global = 1.21501e-05, cumulative = 0.000224284
DICPCG:  Solving for p_rgh, Initial residual = 8.91194e-05, Final residual = 9.4786e-08, No Iterations 53
time step continuity errors : sum local = 6.87615e-07, global = 2.72761e-08, cumulative = 0.000224311
ExecutionTime = 0.2 s  ClockTime = 0 s

Courant Number mean: 0.179197 max: 1.01605
Interface Courant Number mean: 0.0181829 max: 1.01605
deltaT = 0.005
Time = 0.115

PIMPLE: iteration 1
smoothSolver:  Solving for alpha.water, Initial residual = 0.00599655, Final residual = 4.31677e-10, No Iterations 5
Phase-1 volume fraction = 0.1259  Min(alpha.water) = -1.057e-07  Max(alpha.water) = 1
MULES: Correcting alpha.water
MULES: Correcting alpha.water
Phase-1 volume fraction = 0.1259  Min(alpha.water) = -1.057e-07  Max(alpha.water) = 1
DICPCG:  Solving for p_rgh, Initial residual = 0.0196008, Final residual = 0.00054755, No Iterations 2
time step continuity errors : sum local = 0.00399394, global = -4.70055e-07, cumulative = 0.000223841
DICPCG:  Solving for p_rgh, Initial residual = 0.000604882, Final residual = 2.6751e-05, No Iterations 18
time step continuity errors : sum local = 0.000190627, global = 1.56663e-05, cumulative = 0.000239507
DICPCG:  Solving for p_rgh, Initial residual = 8.90073e-05, Final residual = 7.85436e-08, No Iterations 56
time step continuity errors : sum local = 5.66888e-07, global = -2.73591e-08, cumulative = 0.00023948
ExecutionTime = 0.2 s  ClockTime = 0 s

Courant Number mean: 0.185035 max: 1.03896
Interface Courant Number mean: 0.01904 max: 1.03896
deltaT = 0.005
Time = 0.12

PIMPLE: iteration 1
smoothSolver:  Solving for alpha.water, Initial residual = 0.00631415, Final residual = 6.63222e-10, No Iterations 5
Phase-1 volume fraction = 0.1259  Min(alpha.water) = -8.19335e-08  Max(alpha.water) = 1
MULES: Correcting alpha.water
MULES: Correcting alpha.water
Phase-1 volume fraction = 0.1259  Min(alpha.water) = -8.19335e-08  Max(alpha.water) = 1
DICPCG:  Solving for p_rgh, Initial residual = 0.0188353, Final residual = 0.000493335, No Iterations 2
time step continuity errors : sum local = 0.00363196, global = -7.35815e-07, cumulative = 0.000238744
DICPCG:  Solving for p_rgh, Initial residual = 0.000549291, Final residual = 2.74452e-05, No Iterations 18
time step continuity errors : sum local = 0.00019752, global = 2.09371e-05, cumulative = 0.000259681
DICPCG:  Solving for p_rgh, Initial residual = 8.48003e-05, Final residual = 8.84807e-08, No Iterations 56
time step continuity errors : sum local = 6.43201e-07, global = 1.62968e-08, cumulative = 0.000259698
ExecutionTime = 0.2 s  ClockTime = 0 s

Courant Number mean: 0.190473 max: 1.06935
Interface Courant Number mean: 0.0208392 max: 1.06935
deltaT = 0.005
Time = 0.125

PIMPLE: iteration 1
smoothSolver:  Solving for alpha.water, Initial residual = 0.00669777, Final residual = 9.61533e-10, No Iterations 5
Phase-1 volume fraction = 0.1259  Min(alpha.water) = -6.80144e-08  Max(alpha.water) = 1
MULES: Correcting alpha.water
MULES: Correcting alpha.water
Phase-1 volume fraction = 0.1259  Min(alpha.water) = -3.17343e-06  Max(alpha.water) = 1
DICPCG:  Solving for p_rgh, Initial residual = 0.0273081, Final residual = 0.0011931, No Iterations 1
time step continuity errors : sum local = 0.00900942, global = -6.19263e-07, cumulative = 0.000259078
DICPCG:  Solving for p_rgh, Initial residual = 0.00132946, Final residual = 5.43914e-05, No Iterations 7
time step continuity errors : sum local = 0.000398296, global = 8.13016e-07, cumulative = 0.000259891
DICPCG:  Solving for p_rgh, Initial residual = 0.000187168, Final residual = 8.92078e-08, No Iterations 56
time step continuity errors : sum local = 6.50999e-07, global = 3.43892e-09, cumulative = 0.000259895
ExecutionTime = 0.21 s  ClockTime = 0 s

Courant Number mean: 0.195551 max: 1.08905
Interface Courant Number mean: 0.0210714 max: 1.08905
deltaT = 0.005
Time = 0.13

PIMPLE: iteration 1
smoothSolver:  Solving for alpha.water, Initial residual = 0.00692217, Final residual = 1.28001e-09, No Iterations 5
Phase-1 volume fraction = 0.1259  Min(alpha.water) = -6.35596e-08  Max(alpha.water) = 1
MULES: Correcting alpha.water
MULES: Correcting alpha.water
Phase-1 volume fraction = 0.1259  Min(alpha.water) = -9.7785e-06  Max(alpha.water) = 1
DICPCG:  Solving for p_rgh, Initial residual = 0.021805, Final residual = 0.000510477, No Iterations 2
time step continuity errors : sum local = 0.00374603, global = -7.19668e-08, cumulative = 0.000259823
DICPCG:  Solving for p_rgh, Initial residual = 0.00056984, Final residual = 2.63938e-05, No Iterations 11
time step continuity errors : sum local = 0.000188595, global = 1.10762e-05, cumulative = 0.000270899
DICPCG:  Solving for p_rgh, Initial residual = 9.06109e-05, Final residual = 7.00247e-08, No Iterations 53
time step continuity errors : sum local = 4.99501e-07, global = 2.01846e-08, cumulative = 0.000270919
ExecutionTime = 0.22 s  ClockTime = 0 s

Courant Number mean: 0.200296 max: 1.1057
Interface Courant Number mean: 0.021838 max: 1.1057
deltaT = 0.005
Time = 0.135

PIMPLE: iteration 1
smoothSolver:  Solving for alpha.water, Initial residual = 0.00734321, Final residual = 1.61853e-09, No Iterations 5
Phase-1 volume fraction = 0.1259  Min(alpha.water) = -5.74381e-08  Max(alpha.water) = 1
MULES: Correcting alpha.water
MULES: Correcting alpha.water
Phase-1 volume fraction = 0.1259  Min(alpha.water) = -5.74381e-08  Max(alpha.water) = 1
DICPCG:  Solving for p_rgh, Initial residual = 0.018588, Final residual = 0.000515365, No Iterations 2
time step continuity errors : sum local = 0.00372226, global = -4.93384e-07, cumulative = 0.000270426
DICPCG:  Solving for p_rgh, Initial residual = 0.000575546, Final residual = 2.5164e-05, No Iterations 11
time step continuity errors : sum local = 0.000177543, global = 1.14895e-05, cumulative = 0.000281915
DICPCG:  Solving for p_rgh, Initial residual = 9.05064e-05, Final residual = 9.16052e-08, No Iterations 59
time step continuity errors : sum local = 6.44563e-07, global = -1.65391e-09, cumulative = 0.000281914
ExecutionTime = 0.23 s  ClockTime = 0 s

Courant Number mean: 0.204767 max: 1.13571
Interface Courant Number mean: 0.0238798 max: 1.13571
deltaT = 0.005
Time = 0.14

PIMPLE: iteration 1
smoothSolver:  Solving for alpha.water, Initial residual = 0.00766067, Final residual = 2.00981e-09, No Iterations 5
Phase-1 volume fraction = 0.1259  Min(alpha.water) = -5.06613e-08  Max(alpha.water) = 1
MULES: Correcting alpha.water
MULES: Correcting alpha.water
Phase-1 volume fraction = 0.1259  Min(alpha.water) = -5.06613e-08  Max(alpha.water) = 1
DICPCG:  Solving for p_rgh, Initial residual = 0.0194227, Final residual = 0.000449625, No Iterations 2
time step continuity errors : sum local = 0.00325485, global = -6.34739e-07, cumulative = 0.000281279
DICPCG:  Solving for p_rgh, Initial residual = 0.000511252, Final residual = 2.1903e-05, No Iterations 11
time step continuity errors : sum local = 0.000154778, global = 8.10943e-06, cumulative = 0.000289388
DICPCG:  Solving for p_rgh, Initial residual = 8.64572e-05, Final residual = 8.16497e-08, No Iterations 50
time step continuity errors : sum local = 5.74793e-07, global = -2.13047e-08, cumulative = 0.000289367
ExecutionTime = 0.23 s  ClockTime = 0 s

Courant Number mean: 0.209084 max: 1.15246
Interface Courant Number mean: 0.0249689 max: 1.15246
deltaT = 0.005
Time = 0.145

PIMPLE: iteration 1
smoothSolver:  Solving for alpha.water, Initial residual = 0.00775488, Final residual = 2.23473e-09, No Iterations 5
Phase-1 volume fraction = 0.1259  Min(alpha.water) = -4.39622e-08  Max(alpha.water) = 1
MULES: Correcting alpha.water
MULES: Correcting alpha.water
Phase-1 volume fraction = 0.1259  Min(alpha.water) = -4.39622e-08  Max(alpha.water) = 1
DICPCG:  Solving for p_rgh, Initial residual = 0.0246798, Final residual = 0.00112981, No Iterations 1
time step continuity errors : sum local = 0.00823096, global = -4.35893e-07, cumulative = 0.000288931
DICPCG:  Solving for p_rgh, Initial residual = 0.00127675, Final residual = 5.9556e-05, No Iterations 7
time step continuity errors : sum local = 0.000421804, global = -1.54396e-06, cumulative = 0.000287387
DICPCG:  Solving for p_rgh, Initial residual = 0.000197117, Final residual = 9.34867e-08, No Iterations 51
time step continuity errors : sum local = 6.57996e-07, global = 6.88999e-08, cumulative = 0.000287456
ExecutionTime = 0.24 s  ClockTime = 0 s

Courant Number mean: 0.213051 max: 1.18545
Interface Courant Number mean: 0.0247007 max: 1.18545
deltaT = 0.005
Time = 0.15

PIMPLE: iteration 1
smoothSolver:  Solving for alpha.water, Initial residual = 0.00818453, Final residual = 2.62062e-09, No Iterations 5
Phase-1 volume fraction = 0.1259  Min(alpha.water) = -3.93286e-08  Max(alpha.water) = 1
MULES: Correcting alpha.water
MULES: Correcting alpha.water
Phase-1 volume fraction = 0.1259  Min(alpha.water) = -1.42611e-07  Max(alpha.water) = 1
DICPCG:  Solving for p_rgh, Initial residual = 0.0205683, Final residual = 0.000485106, No Iterations 2
time step continuity errors : sum local = 0.00341291, global = 5.60704e-08, cumulative = 0.000287512
DICPCG:  Solving for p_rgh, Initial residual = 0.00054844, Final residual = 2.26563e-05, No Iterations 11
time step continuity errors : sum local = 0.000155337, global = 6.0033e-06, cumulative = 0.000293516
DICPCG:  Solving for p_rgh, Initial residual = 9.09357e-05, Final residual = 9.09336e-08, No Iterations 61
time step continuity errors : sum local = 6.20146e-07, global = 6.63804e-08, cumulative = 0.000293582
ExecutionTime = 0.25 s  ClockTime = 0 s

Courant Number mean: 0.217186 max: 1.21358
Interface Courant Number mean: 0.027552 max: 1.21358
deltaT = 0.00416667
Time = 0.154167

PIMPLE: iteration 1
smoothSolver:  Solving for alpha.water, Initial residual = 0.00704692, Final residual = 8.07016e-10, No Iterations 5
Phase-1 volume fraction = 0.1259  Min(alpha.water) = -3.7279e-08  Max(alpha.water) = 1
MULES: Correcting alpha.water
MULES: Correcting alpha.water
Phase-1 volume fraction = 0.1259  Min(alpha.water) = -3.7279e-08  Max(alpha.water) = 1
DICPCG:  Solving for p_rgh, Initial residual = 0.0174577, Final residual = 0.000429097, No Iterations 2
time step continuity errors : sum local = 0.00209066, global = -2.24537e-07, cumulative = 0.000293357
DICPCG:  Solving for p_rgh, Initial residual = 0.000483166, Final residual = 2.17069e-05, No Iterations 22
time step continuity errors : sum local = 0.000103537, global = -6.60132e-06, cumulative = 0.000286756
DICPCG:  Solving for p_rgh, Initial residual = 7.74971e-05, Final residual = 7.22343e-08, No Iterations 52
time step continuity errors : sum local = 3.40818e-07, global = 2.41561e-08, cumulative = 0.00028678
ExecutionTime = 0.26 s  ClockTime = 0 s

Courant Number mean: 0.18288 max: 1.02193
Interface Courant Number mean: 0.0221564 max: 1.02193
deltaT = 0.00416667
Time = 0.158333

PIMPLE: iteration 1
smoothSolver:  Solving for alpha.water, Initial residual = 0.00721073, Final residual = 9.14965e-10, No Iterations 5
Phase-1 volume fraction = 0.1259  Min(alpha.water) = -3.48074e-08  Max(alpha.water) = 1
MULES: Correcting alpha.water
MULES: Correcting alpha.water
Phase-1 volume fraction = 0.1259  Min(alpha.water) = -1.32505e-07  Max(alpha.water) = 1
DICPCG:  Solving for p_rgh, Initial residual = 0.0169031, Final residual = 0.000392272, No Iterations 2
time step continuity errors : sum local = 0.00190108, global = 6.35786e-08, cumulative = 0.000286844
DICPCG:  Solving for p_rgh, Initial residual = 0.000450376, Final residual = 1.62485e-05, No Iterations 32
time step continuity errors : sum local = 7.71619e-05, global = -1.93013e-05, cumulative = 0.000267543
DICPCG:  Solving for p_rgh, Initial residual = 7.69753e-05, Final residual = 8.07509e-08, No Iterations 66
time step continuity errors : sum local = 3.79622e-07, global = -1.57605e-08, cumulative = 0.000267527
ExecutionTime = 0.28 s  ClockTime = 0 s

Courant Number mean: 0.185087 max: 1.01997
Interface Courant Number mean: 0.0217549 max: 1.01997
deltaT = 0.00416667
Time = 0.1625

PIMPLE: iteration 1
smoothSolver:  Solving for alpha.water, Initial residual = 0.00750854, Final residual = 1.1261e-09, No Iterations 5
Phase-1 volume fraction = 0.1259  Min(alpha.water) = -3.21197e-08  Max(alpha.water) = 1
MULES: Correcting alpha.water
MULES: Correcting alpha.water
Phase-1 volume fraction = 0.1259  Min(alpha.water) = -2.19444e-07  Max(alpha.water) = 1
DICPCG:  Solving for p_rgh, Initial residual = 0.022985, Final residual = 0.000888942, No Iterations 1
time step continuity errors : sum local = 0.0043794, global = 5.70105e-07, cumulative = 0.000268097
DICPCG:  Solving for p_rgh, Initial residual = 0.00101831, Final residual = 4.7716e-05, No Iterations 24
time step continuity errors : sum local = 0.000229067, global = -5.56598e-05, cumulative = 0.000212437
DICPCG:  Solving for p_rgh, Initial residual = 0.000167245, Final residual = 5.5484e-08, No Iterations 66
time step continuity errors : sum local = 2.60555e-07, global = 1.15524e-08, cumulative = 0.000212449
ExecutionTime = 0.28 s  ClockTime = 0 s

Courant Number mean: 0.187137 max: 1.01429
Interface Courant Number mean: 0.0225102 max: 1.01429
deltaT = 0.00416667
Time = 0.166667

PIMPLE: iteration 1
smoothSolver:  Solving for alpha.water, Initial residual = 0.00778124, Final residual = 1.32944e-09, No Iterations 5
Phase-1 volume fraction = 0.1259  Min(alpha.water) = -2.93561e-08  Max(alpha.water) = 1
MULES: Correcting alpha.water
MULES: Correcting alpha.water
Phase-1 volume fraction = 0.1259  Min(alpha.water) = -5.73572e-08  Max(alpha.water) = 1
DICPCG:  Solving for p_rgh, Initial residual = 0.0204186, Final residual = 0.000955129, No Iterations 1
time step continuity errors : sum local = 0.00455388, global = 1.73058e-06, cumulative = 0.000214179
DICPCG:  Solving for p_rgh, Initial residual = 0.00109139, Final residual = 4.9664e-05, No Iterations 32
time step continuity errors : sum local = 0.000231296, global = -6.80832e-05, cumulative = 0.000146096
DICPCG:  Solving for p_rgh, Initial residual = 0.000174123, Final residual = 8.12393e-08, No Iterations 61
time step continuity errors : sum local = 3.72713e-07, global = 4.08812e-08, cumulative = 0.000146137
ExecutionTime = 0.28 s  ClockTime = 0 s

Courant Number mean: 0.18841 max: 1.00257
Interface Courant Number mean: 0.0234297 max: 1.00257
deltaT = 0.00416667
Time = 0.170833

PIMPLE: iteration 1
smoothSolver:  Solving for alpha.water, Initial residual = 0.00804233, Final residual = 1.41166e-09, No Iterations 5
Phase-1 volume fraction = 0.1259  Min(alpha.water) = -2.66238e-08  Max(alpha.water) = 1
MULES: Correcting alpha.water
MULES: Correcting alpha.water
Phase-1 volume fraction = 0.1259  Min(alpha.water) = -1.31294e-07  Max(alpha.water) = 1
DICPCG:  Solving for p_rgh, Initial residual = 0.0178173, Final residual = 0.000391835, No Iterations 2
time step continuity errors : sum local = 0.00181298, global = 2.43527e-06, cumulative = 0.000148572
DICPCG:  Solving for p_rgh, Initial residual = 0.000464095, Final residual = 2.28392e-05, No Iterations 44
time step continuity errors : sum local = 0.000103365, global = -1.68561e-06, cumulative = 0.000146887
DICPCG:  Solving for p_rgh, Initial residual = 9.36008e-05, Final residual = 9.0901e-08, No Iterations 65
time step continuity errors : sum local = 4.06937e-07, global = -2.02518e-08, cumulative = 0.000146866
ExecutionTime = 0.29 s  ClockTime = 0 s

Courant Number mean: 0.189415 max: 1.05181
Interface Courant Number mean: 0.0235179 max: 0.989513
deltaT = 0.00416667
Time = 0.175

PIMPLE: iteration 1
smoothSolver:  Solving for alpha.water, Initial residual = 0.00806685, Final residual = 1.50832e-09, No Iterations 5
Phase-1 volume fraction = 0.1259  Min(alpha.water) = -2.42752e-08  Max(alpha.water) = 1
MULES: Correcting alpha.water
MULES: Correcting alpha.water
Phase-1 volume fraction = 0.1259  Min(alpha.water) = -4.15983e-07  Max(alpha.water) = 1
DICPCG:  Solving for p_rgh, Initial residual = 0.0161467, Final residual = 0.000369768, No Iterations 2
time step continuity errors : sum local = 0.00168086, global = -1.09899e-07, cumulative = 0.000146756
DICPCG:  Solving for p_rgh, Initial residual = 0.000444858, Final residual = 1.93083e-05, No Iterations 37
time step continuity errors : sum local = 8.60076e-05, global = -3.31983e-05, cumulative = 0.000113558
DICPCG:  Solving for p_rgh, Initial residual = 8.56985e-05, Final residual = 8.09818e-08, No Iterations 66
time step continuity errors : sum local = 3.55695e-07, global = -8.98182e-09, cumulative = 0.000113549
ExecutionTime = 0.3 s  ClockTime = 0 s

Courant Number mean: 0.190044 max: 1.08472
Interface Courant Number mean: 0.024726 max: 0.982131
deltaT = 0.00357143
Time = 0.178571

PIMPLE: iteration 1
smoothSolver:  Solving for alpha.water, Initial residual = 0.0071353, Final residual = 4.51038e-10, No Iterations 5
Phase-1 volume fraction = 0.1259  Min(alpha.water) = -2.33498e-08  Max(alpha.water) = 1
MULES: Correcting alpha.water
MULES: Correcting alpha.water
Phase-1 volume fraction = 0.1259  Min(alpha.water) = -2.68857e-07  Max(alpha.water) = 1
DICPCG:  Solving for p_rgh, Initial residual = 0.016385, Final residual = 0.000769994, No Iterations 1
time step continuity errors : sum local = 0.00260517, global = 7.81369e-07, cumulative = 0.000114331
DICPCG:  Solving for p_rgh, Initial residual = 0.000879094, Final residual = 4.14716e-05, No Iterations 21
time step continuity errors : sum local = 0.000137723, global = -9.8209e-06, cumulative = 0.00010451
DICPCG:  Solving for p_rgh, Initial residual = 0.000133944, Final residual = 7.12741e-08, No Iterations 62
time step continuity errors : sum local = 2.31551e-07, global = 2.74245e-09, cumulative = 0.000104512
ExecutionTime = 0.31 s  ClockTime = 0 s

Courant Number mean: 0.162752 max: 0.929383
Interface Courant Number mean: 0.0205519 max: 0.839847
deltaT = 0.00357143
Time = 0.182143

PIMPLE: iteration 1
smoothSolver:  Solving for alpha.water, Initial residual = 0.00727478, Final residual = 4.25465e-10, No Iterations 5
Phase-1 volume fraction = 0.1259  Min(alpha.water) = -2.23065e-08  Max(alpha.water) = 1
MULES: Correcting alpha.water
MULES: Correcting alpha.water
Phase-1 volume fraction = 0.1259  Min(alpha.water) = -2.356e-07  Max(alpha.water) = 1
DICPCG:  Solving for p_rgh, Initial residual = 0.0199822, Final residual = 0.000705216, No Iterations 1
time step continuity errors : sum local = 0.00240271, global = 1.26363e-07, cumulative = 0.000104639
DICPCG:  Solving for p_rgh, Initial residual = 0.000814969, Final residual = 3.90629e-05, No Iterations 9
time step continuity errors : sum local = 0.000130105, global = 6.2852e-07, cumulative = 0.000105267
DICPCG:  Solving for p_rgh, Initial residual = 0.000129006, Final residual = 9.94506e-08, No Iterations 66
time step continuity errors : sum local = 3.28638e-07, global = -3.51022e-08, cumulative = 0.000105232
ExecutionTime = 0.32 s  ClockTime = 0 s

Courant Number mean: 0.162767 max: 0.941719
Interface Courant Number mean: 0.0216031 max: 0.895913
deltaT = 0.00357143
Time = 0.185714

PIMPLE: iteration 1
smoothSolver:  Solving for alpha.water, Initial residual = 0.00736347, Final residual = 3.98996e-10, No Iterations 5
Phase-1 volume fraction = 0.1259  Min(alpha.water) = -2.11795e-08  Max(alpha.water) = 1
MULES: Correcting alpha.water
MULES: Correcting alpha.water
Phase-1 volume fraction = 0.1259  Min(alpha.water) = -2.27591e-07  Max(alpha.water) = 1
DICPCG:  Solving for p_rgh, Initial residual = 0.0190085, Final residual = 0.00076285, No Iterations 1
time step continuity errors : sum local = 0.00251314, global = -1.25812e-07, cumulative = 0.000105106
DICPCG:  Solving for p_rgh, Initial residual = 0.000873126, Final residual = 4.11903e-05, No Iterations 8
time step continuity errors : sum local = 0.000132809, global = -3.1704e-07, cumulative = 0.000104789
DICPCG:  Solving for p_rgh, Initial residual = 0.000131521, Final residual = 8.63038e-08, No Iterations 66
time step continuity errors : sum local = 2.76447e-07, global = -1.10469e-08, cumulative = 0.000104778
ExecutionTime = 0.32 s  ClockTime = 0 s

Courant Number mean: 0.162825 max: 0.931981
Interface Courant Number mean: 0.0217252 max: 0.931981
deltaT = 0.00357143
Time = 0.189286

PIMPLE: iteration 1
smoothSolver:  Solving for alpha.water, Initial residual = 0.00740798, Final residual = 3.77715e-10, No Iterations 5
Phase-1 volume fraction = 0.1259  Min(alpha.water) = -1.99999e-08  Max(alpha.water) = 1
MULES: Correcting alpha.water
MULES: Correcting alpha.water
Phase-1 volume fraction = 0.1259  Min(alpha.water) = -3.03632e-06  Max(alpha.water) = 1
DICPCG:  Solving for p_rgh, Initial residual = 0.0168252, Final residual = 0.0007974, No Iterations 1
time step continuity errors : sum local = 0.00255196, global = -2.82243e-08, cumulative = 0.00010475
DICPCG:  Solving for p_rgh, Initial residual = 0.000912089, Final residual = 4.35437e-05, No Iterations 8
time step continuity errors : sum local = 0.000136718, global = -2.09996e-07, cumulative = 0.00010454
DICPCG:  Solving for p_rgh, Initial residual = 0.000132837, Final residual = 8.19032e-08, No Iterations 66
time step continuity errors : sum local = 2.55444e-07, global = -5.61425e-09, cumulative = 0.000104534
ExecutionTime = 0.33 s  ClockTime = 0 s

Courant Number mean: 0.16287 max: 0.936059
Interface Courant Number mean: 0.0220867 max: 0.936059
deltaT = 0.00357143
Time = 0.192857

PIMPLE: iteration 1
smoothSolver:  Solving for alpha.water, Initial residual = 0.00745781, Final residual = 3.64201e-10, No Iterations 5
Phase-1 volume fraction = 0.1259  Min(alpha.water) = -1.87919e-08  Max(alpha.water) = 1
MULES: Correcting alpha.water
MULES: Correcting alpha.water
Phase-1 volume fraction = 0.1259  Min(alpha.water) = -1.49704e-06  Max(alpha.water) = 1
DICPCG:  Solving for p_rgh, Initial residual = 0.0158138, Final residual = 0.000310908, No Iterations 2
time step continuity errors : sum local = 0.000974499, global = -5.33955e-08, cumulative = 0.000104481
DICPCG:  Solving for p_rgh, Initial residual = 0.000372434, Final residual = 1.1227e-05, No Iterations 21
time step continuity errors : sum local = 3.45254e-05, global = 3.4675e-06, cumulative = 0.000107948
DICPCG:  Solving for p_rgh, Initial residual = 6.12064e-05, Final residual = 9.35127e-08, No Iterations 66
time step continuity errors : sum local = 2.83808e-07, global = -1.20861e-08, cumulative = 0.000107936
ExecutionTime = 0.34 s  ClockTime = 0 s

Courant Number mean: 0.16289 max: 0.929319
Interface Courant Number mean: 0.0218983 max: 0.929319
deltaT = 0.00357143
Time = 0.196429

PIMPLE: iteration 1
smoothSolver:  Solving for alpha.water, Initial residual = 0.00750103, Final residual = 9.8881e-09, No Iterations 4
Phase-1 volume fraction = 0.1259  Min(alpha.water) = -1.75758e-08  Max(alpha.water) = 1
MULES: Correcting alpha.water
MULES: Correcting alpha.water
Phase-1 volume fraction = 0.1259  Min(alpha.water) = -1.77481e-06  Max(alpha.water) = 1
DICPCG:  Solving for p_rgh, Initial residual = 0.0155344, Final residual = 0.000304576, No Iterations 2
time step continuity errors : sum local = 0.000942875, global = -1.94751e-07, cumulative = 0.000107742
DICPCG:  Solving for p_rgh, Initial residual = 0.000363685, Final residual = 1.14039e-05, No Iterations 21
time step continuity errors : sum local = 3.46568e-05, global = 4.29386e-06, cumulative = 0.000112036
DICPCG:  Solving for p_rgh, Initial residual = 6.02299e-05, Final residual = 6.26126e-08, No Iterations 66
time step continuity errors : sum local = 1.87397e-07, global = -6.37642e-09, cumulative = 0.000112029
ExecutionTime = 0.35 s  ClockTime = 0 s

Courant Number mean: 0.163006 max: 0.952016
Interface Courant Number mean: 0.0218648 max: 0.931106
deltaT = 0.00357143
Time = 0.2

PIMPLE: iteration 1
smoothSolver:  Solving for alpha.water, Initial residual = 0.00761429, Final residual = 9.51575e-09, No Iterations 4
Phase-1 volume fraction = 0.1259  Min(alpha.water) = -1.63697e-08  Max(alpha.water) = 1
MULES: Correcting alpha.water
MULES: Correcting alpha.water
Phase-1 volume fraction = 0.1259  Min(alpha.water) = -1.33366e-06  Max(alpha.water) = 1
DICPCG:  Solving for p_rgh, Initial residual = 0.016232, Final residual = 0.000695727, No Iterations 1
time step continuity errors : sum local = 0.00214869, global = -1.73128e-07, cumulative = 0.000111856
DICPCG:  Solving for p_rgh, Initial residual = 0.000805499, Final residual = 3.68425e-05, No Iterations 15
time step continuity errors : sum local = 0.000111701, global = 8.13464e-06, cumulative = 0.000119991
DICPCG:  Solving for p_rgh, Initial residual = 0.000123252, Final residual = 6.73186e-08, No Iterations 69
time step continuity errors : sum local = 2.01055e-07, global = 8.34985e-09, cumulative = 0.000119999
ExecutionTime = 0.36 s  ClockTime = 0 s

Courant Number mean: 0.162909 max: 0.997714
Interface Courant Number mean: 0.0226342 max: 0.95505
deltaT = 0.00357143
Time = 0.203571

PIMPLE: iteration 1
smoothSolver:  Solving for alpha.water, Initial residual = 0.00769395, Final residual = 9.53802e-09, No Iterations 4
Phase-1 volume fraction = 0.1259  Min(alpha.water) = -1.5587e-08  Max(alpha.water) = 1
MULES: Correcting alpha.water
MULES: Correcting alpha.water
Phase-1 volume fraction = 0.1259  Min(alpha.water) = -1.22609e-06  Max(alpha.water) = 1
DICPCG:  Solving for p_rgh, Initial residual = 0.0190554, Final residual = 0.000657104, No Iterations 1
time step continuity errors : sum local = 0.00203031, global = -1.58638e-07, cumulative = 0.00011984
DICPCG:  Solving for p_rgh, Initial residual = 0.000771232, Final residual = 3.06716e-05, No Iterations 16
time step continuity errors : sum local = 9.27787e-05, global = 8.03787e-06, cumulative = 0.000127878
DICPCG:  Solving for p_rgh, Initial residual = 0.000118361, Final residual = 8.15413e-08, No Iterations 69
time step continuity errors : sum local = 2.43117e-07, global = 9.24179e-09, cumulative = 0.000127887
ExecutionTime = 0.37 s  ClockTime = 0 s

Courant Number mean: 0.162908 max: 1.16061
Interface Courant Number mean: 0.0230904 max: 0.972369
deltaT = 0.00306122
Time = 0.206633

PIMPLE: iteration 1
smoothSolver:  Solving for alpha.water, Initial residual = 0.00658449, Final residual = 3.43441e-09, No Iterations 4
Phase-1 volume fraction = 0.1259  Min(alpha.water) = -1.5137e-08  Max(alpha.water) = 1
MULES: Correcting alpha.water
MULES: Correcting alpha.water
Phase-1 volume fraction = 0.1259  Min(alpha.water) = -7.50168e-07  Max(alpha.water) = 1
DICPCG:  Solving for p_rgh, Initial residual = 0.0174352, Final residual = 0.000627601, No Iterations 1
time step continuity errors : sum local = 0.00141028, global = -9.25298e-08, cumulative = 0.000127795
DICPCG:  Solving for p_rgh, Initial residual = 0.000725648, Final residual = 3.31362e-05, No Iterations 16
time step continuity errors : sum local = 7.30597e-05, global = 4.63221e-06, cumulative = 0.000132427
DICPCG:  Solving for p_rgh, Initial residual = 0.000108073, Final residual = 8.71964e-08, No Iterations 69
time step continuity errors : sum local = 1.89846e-07, global = 1.28632e-08, cumulative = 0.00013244
ExecutionTime = 0.38 s  ClockTime = 0 s

Courant Number mean: 0.139494 max: 1.24132
Interface Courant Number mean: 0.0201022 max: 0.954684
deltaT = 0.00262391
Time = 0.209257

PIMPLE: iteration 1
smoothSolver:  Solving for alpha.water, Initial residual = 0.00564638, Final residual = 1.17418e-09, No Iterations 4
Phase-1 volume fraction = 0.1259  Min(alpha.water) = -1.4726e-08  Max(alpha.water) = 1
MULES: Correcting alpha.water
MULES: Correcting alpha.water
Phase-1 volume fraction = 0.1259  Min(alpha.water) = -4.10783e-07  Max(alpha.water) = 1
DICPCG:  Solving for p_rgh, Initial residual = 0.0149505, Final residual = 0.000591564, No Iterations 1
time step continuity errors : sum local = 0.000964261, global = -1.999e-08, cumulative = 0.00013242
DICPCG:  Solving for p_rgh, Initial residual = 0.000676819, Final residual = 3.33536e-05, No Iterations 16
time step continuity errors : sum local = 5.35002e-05, global = 1.5307e-06, cumulative = 0.000133951
DICPCG:  Solving for p_rgh, Initial residual = 0.00010265, Final residual = 9.42365e-08, No Iterations 67
time step continuity errors : sum local = 1.49717e-07, global = -4.73385e-09, cumulative = 0.000133946
ExecutionTime = 0.39 s  ClockTime = 0 s

Courant Number mean: 0.11936 max: 1.23774
Interface Courant Number mean: 0.0173561 max: 0.854148
deltaT = 0.00224906
Time = 0.211506

PIMPLE: iteration 1
smoothSolver:  Solving for alpha.water, Initial residual = 0.00485626, Final residual = 3.95701e-10, No Iterations 4
Phase-1 volume fraction = 0.1259  Min(alpha.water) = -1.4356e-08  Max(alpha.water) = 1
MULES: Correcting alpha.water
MULES: Correcting alpha.water
Phase-1 volume fraction = 0.1259  Min(alpha.water) = -1.89583e-07  Max(alpha.water) = 1
DICPCG:  Solving for p_rgh, Initial residual = 0.0129005, Final residual = 0.000569232, No Iterations 1
time step continuity errors : sum local = 0.00067586, global = 1.45103e-09, cumulative = 0.000133947
DICPCG:  Solving for p_rgh, Initial residual = 0.000652069, Final residual = 3.15604e-05, No Iterations 17
time step continuity errors : sum local = 3.69935e-05, global = 1.85541e-07, cumulative = 0.000134133
DICPCG:  Solving for p_rgh, Initial residual = 9.56135e-05, Final residual = 8.35467e-08, No Iterations 68
time step continuity errors : sum local = 9.71967e-08, global = -3.72903e-09, cumulative = 0.000134129
ExecutionTime = 0.4 s  ClockTime = 0 s

Courant Number mean: 0.102071 max: 1.17259
Interface Courant Number mean: 0.0148241 max: 0.764598
deltaT = 0.00192777
Time = 0.213433

PIMPLE: iteration 1
smoothSolver:  Solving for alpha.water, Initial residual = 0.00415727, Final residual = 8.18462e-09, No Iterations 3
Phase-1 volume fraction = 0.1259  Min(alpha.water) = -1.40267e-08  Max(alpha.water) = 1
MULES: Correcting alpha.water
MULES: Correcting alpha.water
Phase-1 volume fraction = 0.1259  Min(alpha.water) = -1.38996e-07  Max(alpha.water) = 1
DICPCG:  Solving for p_rgh, Initial residual = 0.0112971, Final residual = 0.000489262, No Iterations 1
time step continuity errors : sum local = 0.000427883, global = 1.83722e-08, cumulative = 0.000134148
DICPCG:  Solving for p_rgh, Initial residual = 0.000557501, Final residual = 2.63477e-05, No Iterations 17
time step continuity errors : sum local = 2.27854e-05, global = 3.42804e-07, cumulative = 0.00013449
DICPCG:  Solving for p_rgh, Initial residual = 7.29127e-05, Final residual = 6.66036e-08, No Iterations 68
time step continuity errors : sum local = 5.72391e-08, global = -1.1936e-09, cumulative = 0.000134489
ExecutionTime = 0.4 s  ClockTime = 0 s

Courant Number mean: 0.087292 max: 1.04321
Interface Courant Number mean: 0.0124184 max: 0.936015
deltaT = 0.00192777
Time = 0.215361

PIMPLE: iteration 1
smoothSolver:  Solving for alpha.water, Initial residual = 0.0041469, Final residual = 8.09114e-09, No Iterations 3
Phase-1 volume fraction = 0.1259  Min(alpha.water) = -1.36847e-08  Max(alpha.water) = 1
MULES: Correcting alpha.water
MULES: Correcting alpha.water
Phase-1 volume fraction = 0.1259  Min(alpha.water) = -1.86561e-07  Max(alpha.water) = 1
DICPCG:  Solving for p_rgh, Initial residual = 0.0109653, Final residual = 0.000500185, No Iterations 1
time step continuity errors : sum local = 0.000433744, global = 1.39187e-08, cumulative = 0.000134503
DICPCG:  Solving for p_rgh, Initial residual = 0.000563272, Final residual = 2.71448e-05, No Iterations 14
time step continuity errors : sum local = 2.32964e-05, global = 3.90956e-07, cumulative = 0.000134894
DICPCG:  Solving for p_rgh, Initial residual = 6.98159e-05, Final residual = 9.3228e-08, No Iterations 67
time step continuity errors : sum local = 7.96809e-08, global = -2.36762e-09, cumulative = 0.000134892
ExecutionTime = 0.41 s  ClockTime = 0 s

Courant Number mean: 0.0871303 max: 1.05501
Interface Courant Number mean: 0.0133735 max: 1.05501
deltaT = 0.00192777
Time = 0.217289

PIMPLE: iteration 1
smoothSolver:  Solving for alpha.water, Initial residual = 0.00415982, Final residual = 8.01776e-09, No Iterations 3
Phase-1 volume fraction = 0.1259  Min(alpha.water) = -1.33318e-08  Max(alpha.water) = 1
MULES: Correcting alpha.water
MULES: Correcting alpha.water
Phase-1 volume fraction = 0.1259  Min(alpha.water) = -7.21304e-07  Max(alpha.water) = 1
DICPCG:  Solving for p_rgh, Initial residual = 0.0109434, Final residual = 0.0005176, No Iterations 1
time step continuity errors : sum local = 0.000448452, global = -3.20415e-09, cumulative = 0.000134889
DICPCG:  Solving for p_rgh, Initial residual = 0.000594261, Final residual = 2.63234e-05, No Iterations 16
time step continuity errors : sum local = 2.25636e-05, global = -1.04571e-07, cumulative = 0.000134784
DICPCG:  Solving for p_rgh, Initial residual = 8.46731e-05, Final residual = 6.6887e-08, No Iterations 68
time step continuity errors : sum local = 5.7079e-08, global = -1.90613e-09, cumulative = 0.000134782
ExecutionTime = 0.42 s  ClockTime = 0 s

Courant Number mean: 0.0869858 max: 1.01669
Interface Courant Number mean: 0.0131278 max: 1.01669
deltaT = 0.00192777
Time = 0.219217

PIMPLE: iteration 1
smoothSolver:  Solving for alpha.water, Initial residual = 0.00416524, Final residual = 8.08146e-09, No Iterations 3
Phase-1 volume fraction = 0.1259  Min(alpha.water) = -1.29696e-08  Max(alpha.water) = 1
MULES: Correcting alpha.water
MULES: Correcting alpha.water
Phase-1 volume fraction = 0.1259  Min(alpha.water) = -1.4886e-07  Max(alpha.water) = 1
DICPCG:  Solving for p_rgh, Initial residual = 0.0112542, Final residual = 0.000486401, No Iterations 1
time step continuity errors : sum local = 0.000422111, global = 1.20101e-08, cumulative = 0.000134794
DICPCG:  Solving for p_rgh, Initial residual = 0.000566533, Final residual = 2.44629e-05, No Iterations 9
time step continuity errors : sum local = 2.10147e-05, global = 2.04239e-08, cumulative = 0.000134814
DICPCG:  Solving for p_rgh, Initial residual = 6.73523e-05, Final residual = 9.60607e-08, No Iterations 59
time step continuity errors : sum local = 8.22798e-08, global = -2.93076e-09, cumulative = 0.000134812
ExecutionTime = 0.42 s  ClockTime = 0 s

Courant Number mean: 0.086843 max: 0.989995
Interface Courant Number mean: 0.0131251 max: 0.989995
deltaT = 0.00192777
Time = 0.221144

PIMPLE: iteration 1
smoothSolver:  Solving for alpha.water, Initial residual = 0.00416986, Final residual = 8.1061e-09, No Iterations 3
Phase-1 volume fraction = 0.1259  Min(alpha.water) = -1.25998e-08  Max(alpha.water) = 1
MULES: Correcting alpha.water
MULES: Correcting alpha.water
Phase-1 volume fraction = 0.1259  Min(alpha.water) = -2.87387e-08  Max(alpha.water) = 1
DICPCG:  Solving for p_rgh, Initial residual = 0.0116726, Final residual = 0.000397973, No Iterations 1
time step continuity errors : sum local = 0.000349434, global = -5.47233e-09, cumulative = 0.000134806
DICPCG:  Solving for p_rgh, Initial residual = 0.000463669, Final residual = 2.28654e-05, No Iterations 9
time step continuity errors : sum local = 1.98376e-05, global = -2.47562e-08, cumulative = 0.000134781
DICPCG:  Solving for p_rgh, Initial residual = 6.2167e-05, Final residual = 8.60795e-08, No Iterations 67
time step continuity errors : sum local = 7.44695e-08, global = 3.56493e-09, cumulative = 0.000134785
ExecutionTime = 0.43 s  ClockTime = 0 s

Courant Number mean: 0.0866942 max: 0.972186
Interface Courant Number mean: 0.0134332 max: 0.972186
deltaT = 0.00192777
Time = 0.223072

PIMPLE: iteration 1
smoothSolver:  Solving for alpha.water, Initial residual = 0.00416887, Final residual = 8.08628e-09, No Iterations 3
Phase-1 volume fraction = 0.1259  Min(alpha.water) = -1.22243e-08  Max(alpha.water) = 1
MULES: Correcting alpha.water
MULES: Correcting alpha.water
Phase-1 volume fraction = 0.1259  Min(alpha.water) = -2.30918e-08  Max(alpha.water) = 1
DICPCG:  Solving for p_rgh, Initial residual = 0.0133373, Final residual = 0.000383102, No Iterations 1
time step continuity errors : sum local = 0.000337768, global = 6.19001e-09, cumulative = 0.000134791
DICPCG:  Solving for p_rgh, Initial residual = 0.00043192, Final residual = 2.09256e-05, No Iterations 11
time step continuity errors : sum local = 1.8206e-05, global = 3.79099e-08, cumulative = 0.000134829
DICPCG:  Solving for p_rgh, Initial residual = 5.8565e-05, Final residual = 8.55601e-08, No Iterations 67
time step continuity errors : sum local = 7.42171e-08, global = 3.84185e-10, cumulative = 0.000134829
ExecutionTime = 0.44 s  ClockTime = 0 s

Courant Number mean: 0.0865306 max: 0.963143
Interface Courant Number mean: 0.0133645 max: 0.963143
deltaT = 0.00192777
Time = 0.225

PIMPLE: iteration 1
smoothSolver:  Solving for alpha.water, Initial residual = 0.00415543, Final residual = 8.02772e-09, No Iterations 3
Phase-1 volume fraction = 0.1259  Min(alpha.water) = -1.18449e-08  Max(alpha.water) = 1
MULES: Correcting alpha.water
MULES: Correcting alpha.water
Phase-1 volume fraction = 0.1259  Min(alpha.water) = -1.97987e-08  Max(alpha.water) = 1
DICPCG:  Solving for p_rgh, Initial residual = 0.0125125, Final residual = 0.000400379, No Iterations 1
time step continuity errors : sum local = 0.000348853, global = -6.80112e-09, cumulative = 0.000134823
DICPCG:  Solving for p_rgh, Initial residual = 0.000459482, Final residual = 2.26816e-05, No Iterations 13
time step continuity errors : sum local = 1.95139e-05, global = 1.95778e-07, cumulative = 0.000135018
DICPCG:  Solving for p_rgh, Initial residual = 6.22657e-05, Final residual = 9.94675e-08, No Iterations 67
time step continuity errors : sum local = 8.52553e-08, global = -6.6059e-10, cumulative = 0.000135018
ExecutionTime = 0.45 s  ClockTime = 0 s

Courant Number mean: 0.0864064 max: 0.960645
Interface Courant Number mean: 0.0135678 max: 0.960645
deltaT = 0.00208333
Time = 0.227083

PIMPLE: iteration 1
smoothSolver:  Solving for alpha.water, Initial residual = 0.00447607, Final residual = 2.24264e-10, No Iterations 4
Phase-1 volume fraction = 0.1259  Min(alpha.water) = -1.14316e-08  Max(alpha.water) = 1
MULES: Correcting alpha.water
MULES: Correcting alpha.water
Phase-1 volume fraction = 0.1259  Min(alpha.water) = -3.6767e-07  Max(alpha.water) = 1
DICPCG:  Solving for p_rgh, Initial residual = 0.012947, Final residual = 0.000416123, No Iterations 1
time step continuity errors : sum local = 0.000416143, global = -7.48332e-09, cumulative = 0.00013501
DICPCG:  Solving for p_rgh, Initial residual = 0.000483892, Final residual = 2.3865e-05, No Iterations 10
time step continuity errors : sum local = 2.35529e-05, global = 3.4308e-08, cumulative = 0.000135045
DICPCG:  Solving for p_rgh, Initial residual = 6.59297e-05, Final residual = 8.66192e-08, No Iterations 67
time step continuity errors : sum local = 8.52217e-08, global = 3.38277e-09, cumulative = 0.000135048
ExecutionTime = 0.46 s  ClockTime = 0 s

Courant Number mean: 0.0932525 max: 1.02656
Interface Courant Number mean: 0.015324 max: 1.02656
deltaT = 0.00208333
Time = 0.229167

PIMPLE: iteration 1
smoothSolver:  Solving for alpha.water, Initial residual = 0.0044586, Final residual = 2.21323e-10, No Iterations 4
Phase-1 volume fraction = 0.1259  Min(alpha.water) = -1.11043e-08  Max(alpha.water) = 1
MULES: Correcting alpha.water
MULES: Correcting alpha.water
Phase-1 volume fraction = 0.1259  Min(alpha.water) = -2.38429e-07  Max(alpha.water) = 1
DICPCG:  Solving for p_rgh, Initial residual = 0.012902, Final residual = 0.000457532, No Iterations 1
time step continuity errors : sum local = 0.000449633, global = 7.73474e-10, cumulative = 0.000135049
DICPCG:  Solving for p_rgh, Initial residual = 0.000519777, Final residual = 2.4077e-05, No Iterations 10
time step continuity errors : sum local = 2.33613e-05, global = 1.71442e-08, cumulative = 0.000135066
DICPCG:  Solving for p_rgh, Initial residual = 6.89993e-05, Final residual = 8.91139e-08, No Iterations 67
time step continuity errors : sum local = 8.62027e-08, global = 3.70768e-09, cumulative = 0.00013507
ExecutionTime = 0.46 s  ClockTime = 0 s

Courant Number mean: 0.0931121 max: 1.01567
Interface Courant Number mean: 0.0153032 max: 1.01567
deltaT = 0.00208333
Time = 0.23125

PIMPLE: iteration 1
smoothSolver:  Solving for alpha.water, Initial residual = 0.00445586, Final residual = 2.18358e-10, No Iterations 4
Phase-1 volume fraction = 0.1259  Min(alpha.water) = -1.09316e-08  Max(alpha.water) = 1
MULES: Correcting alpha.water
MULES: Correcting alpha.water
Phase-1 volume fraction = 0.1259  Min(alpha.water) = -9.43098e-07  Max(alpha.water) = 1
DICPCG:  Solving for p_rgh, Initial residual = 0.0125458, Final residual = 0.000478428, No Iterations 1
time step continuity errors : sum local = 0.000464054, global = -1.78316e-09, cumulative = 0.000135068
DICPCG:  Solving for p_rgh, Initial residual = 0.000544802, Final residual = 2.67036e-05, No Iterations 9
time step continuity errors : sum local = 2.5588e-05, global = -6.11163e-09, cumulative = 0.000135062
DICPCG:  Solving for p_rgh, Initial residual = 7.15231e-05, Final residual = 7.81097e-08, No Iterations 67
time step continuity errors : sum local = 7.46379e-08, global = 2.26325e-09, cumulative = 0.000135064
ExecutionTime = 0.47 s  ClockTime = 0 s

Courant Number mean: 0.0930063 max: 1.00868
Interface Courant Number mean: 0.0155349 max: 1.00868
deltaT = 0.00208333
Time = 0.233333

PIMPLE: iteration 1
smoothSolver:  Solving for alpha.water, Initial residual = 0.00443503, Final residual = 2.14689e-10, No Iterations 4
Phase-1 volume fraction = 0.1259  Min(alpha.water) = -1.07444e-08  Max(alpha.water) = 1
MULES: Correcting alpha.water
MULES: Correcting alpha.water
Phase-1 volume fraction = 0.1259  Min(alpha.water) = -3.3964e-07  Max(alpha.water) = 1
DICPCG:  Solving for p_rgh, Initial residual = 0.0120272, Final residual = 0.00045662, No Iterations 1
time step continuity errors : sum local = 0.000438174, global = -3.81432e-09, cumulative = 0.00013506
DICPCG:  Solving for p_rgh, Initial residual = 0.000513528, Final residual = 2.34311e-05, No Iterations 9
time step continuity errors : sum local = 2.22081e-05, global = -1.809e-08, cumulative = 0.000135042
DICPCG:  Solving for p_rgh, Initial residual = 6.54492e-05, Final residual = 8.42519e-08, No Iterations 65
time step continuity errors : sum local = 7.96308e-08, global = 2.80292e-09, cumulative = 0.000135045
ExecutionTime = 0.48 s  ClockTime = 0 s

Courant Number mean: 0.0928811 max: 1.02535
Interface Courant Number mean: 0.0160114 max: 1.02535
deltaT = 0.00208333
Time = 0.235417

PIMPLE: iteration 1
smoothSolver:  Solving for alpha.water, Initial residual = 0.00442452, Final residual = 2.10835e-10, No Iterations 4
Phase-1 volume fraction = 0.1259  Min(alpha.water) = -1.05443e-08  Max(alpha.water) = 1
MULES: Correcting alpha.water
MULES: Correcting alpha.water
Phase-1 volume fraction = 0.1259  Min(alpha.water) = -1.84245e-07  Max(alpha.water) = 1
DICPCG:  Solving for p_rgh, Initial residual = 0.0116366, Final residual = 0.000502462, No Iterations 1
time step continuity errors : sum local = 0.000475106, global = -2.12549e-10, cumulative = 0.000135045
DICPCG:  Solving for p_rgh, Initial residual = 0.000556988, Final residual = 2.6525e-05, No Iterations 16
time step continuity errors : sum local = 2.47928e-05, global = 4.43993e-07, cumulative = 0.000135489
DICPCG:  Solving for p_rgh, Initial residual = 7.72142e-05, Final residual = 7.04202e-08, No Iterations 69
time step continuity errors : sum local = 6.55601e-08, global = 1.02894e-09, cumulative = 0.00013549
ExecutionTime = 0.48 s  ClockTime = 0 s

Courant Number mean: 0.0927969 max: 1.03951
Interface Courant Number mean: 0.0154237 max: 1.03951
deltaT = 0.00208333
Time = 0.2375

PIMPLE: iteration 1
smoothSolver:  Solving for alpha.water, Initial residual = 0.00441638, Final residual = 2.07855e-10, No Iterations 4
Phase-1 volume fraction = 0.1259  Min(alpha.water) = -1.03325e-08  Max(alpha.water) = 1
MULES: Correcting alpha.water
MULES: Correcting alpha.water
Phase-1 volume fraction = 0.1259  Min(alpha.water) = -1.19904e-07  Max(alpha.water) = 1
DICPCG:  Solving for p_rgh, Initial residual = 0.0113053, Final residual = 0.00051404, No Iterations 1
time step continuity errors : sum local = 0.000482263, global = -1.86322e-09, cumulative = 0.000135488
DICPCG:  Solving for p_rgh, Initial residual = 0.000581584, Final residual = 2.78028e-05, No Iterations 16
time step continuity errors : sum local = 2.57923e-05, global = 6.11819e-07, cumulative = 0.0001361
DICPCG:  Solving for p_rgh, Initial residual = 8.40093e-05, Final residual = 7.63741e-08, No Iterations 69
time step continuity errors : sum local = 7.05833e-08, global = 1.93009e-09, cumulative = 0.000136101
ExecutionTime = 0.49 s  ClockTime = 0 s

Courant Number mean: 0.0927681 max: 1.04052
Interface Courant Number mean: 0.0156435 max: 1.04052
deltaT = 0.00208333
Time = 0.239583

PIMPLE: iteration 1
smoothSolver:  Solving for alpha.water, Initial residual = 0.0044151, Final residual = 2.04562e-10, No Iterations 4
Phase-1 volume fraction = 0.1259  Min(alpha.water) = -1.01104e-08  Max(alpha.water) = 1
MULES: Correcting alpha.water
MULES: Correcting alpha.water
Phase-1 volume fraction = 0.1259  Min(alpha.water) = -2.87679e-08  Max(alpha.water) = 1
DICPCG:  Solving for p_rgh, Initial residual = 0.0117472, Final residual = 0.000518397, No Iterations 1
time step continuity errors : sum local = 0.000483881, global = -4.30198e-10, cumulative = 0.000136101
DICPCG:  Solving for p_rgh, Initial residual = 0.000579641, Final residual = 2.77419e-05, No Iterations 15
time step continuity errors : sum local = 2.56095e-05, global = 3.15489e-07, cumulative = 0.000136417
DICPCG:  Solving for p_rgh, Initial residual = 8.26313e-05, Final residual = 5.88532e-08, No Iterations 69
time step continuity errors : sum local = 5.41327e-08, global = 1.12142e-09, cumulative = 0.000136418
ExecutionTime = 0.5 s  ClockTime = 0 s

Courant Number mean: 0.0927044 max: 1.02602
Interface Courant Number mean: 0.015394 max: 1.02602
deltaT = 0.00208333
Time = 0.241667

PIMPLE: iteration 1
smoothSolver:  Solving for alpha.water, Initial residual = 0.0044049, Final residual = 2.01108e-10, No Iterations 4
Phase-1 volume fraction = 0.1259  Min(alpha.water) = -9.87966e-09  Max(alpha.water) = 1
MULES: Correcting alpha.water
MULES: Correcting alpha.water
Phase-1 volume fraction = 0.1259  Min(alpha.water) = -9.87966e-09  Max(alpha.water) = 1
DICPCG:  Solving for p_rgh, Initial residual = 0.0119284, Final residual = 0.000544439, No Iterations 1
time step continuity errors : sum local = 0.000507781, global = -1.97685e-09, cumulative = 0.000136416
DICPCG:  Solving for p_rgh, Initial residual = 0.000610427, Final residual = 3.0489e-05, No Iterations 10
time step continuity errors : sum local = 2.81393e-05, global = 2.97046e-08, cumulative = 0.000136445
DICPCG:  Solving for p_rgh, Initial residual = 8.68991e-05, Final residual = 6.69819e-08, No Iterations 68
time step continuity errors : sum local = 6.16822e-08, global = 2.51168e-09, cumulative = 0.000136448
ExecutionTime = 0.52 s  ClockTime = 0 s

Courant Number mean: 0.0926396 max: 1.00731
Interface Courant Number mean: 0.0156443 max: 1.00731
deltaT = 0.00208333
Time = 0.24375

PIMPLE: iteration 1
smoothSolver:  Solving for alpha.water, Initial residual = 0.00438181, Final residual = 1.9749e-10, No Iterations 4
Phase-1 volume fraction = 0.1259  Min(alpha.water) = -9.6415e-09  Max(alpha.water) = 1
MULES: Correcting alpha.water
MULES: Correcting alpha.water
Phase-1 volume fraction = 0.1259  Min(alpha.water) = -1.49317e-08  Max(alpha.water) = 1
DICPCG:  Solving for p_rgh, Initial residual = 0.0120891, Final residual = 0.000487236, No Iterations 1
time step continuity errors : sum local = 0.000456239, global = -2.07632e-09, cumulative = 0.000136446
DICPCG:  Solving for p_rgh, Initial residual = 0.000553263, Final residual = 2.66058e-05, No Iterations 9
time step continuity errors : sum local = 2.46408e-05, global = -6.47629e-09, cumulative = 0.000136439
DICPCG:  Solving for p_rgh, Initial residual = 7.79118e-05, Final residual = 9.35937e-08, No Iterations 67
time step continuity errors : sum local = 8.65049e-08, global = -5.08808e-10, cumulative = 0.000136439
ExecutionTime = 0.52 s  ClockTime = 0 s

Courant Number mean: 0.0925503 max: 0.988186
Interface Courant Number mean: 0.0152013 max: 0.988186
deltaT = 0.00208333
Time = 0.245833

PIMPLE: iteration 1
smoothSolver:  Solving for alpha.water, Initial residual = 0.00437745, Final residual = 1.93854e-10, No Iterations 4
Phase-1 volume fraction = 0.1259  Min(alpha.water) = -9.39696e-09  Max(alpha.water) = 1
MULES: Correcting alpha.water
MULES: Correcting alpha.water
Phase-1 volume fraction = 0.1259  Min(alpha.water) = -2.2477e-08  Max(alpha.water) = 1
DICPCG:  Solving for p_rgh, Initial residual = 0.0131294, Final residual = 0.000423046, No Iterations 1
time step continuity errors : sum local = 0.000399999, global = -7.73764e-09, cumulative = 0.000136431
DICPCG:  Solving for p_rgh, Initial residual = 0.00048445, Final residual = 2.11562e-05, No Iterations 9
time step continuity errors : sum local = 1.97603e-05, global = 2.74159e-09, cumulative = 0.000136434
DICPCG:  Solving for p_rgh, Initial residual = 6.5989e-05, Final residual = 7.54467e-08, No Iterations 67
time step continuity errors : sum local = 7.03375e-08, global = 3.0712e-09, cumulative = 0.000136437
ExecutionTime = 0.53 s  ClockTime = 0 s

Courant Number mean: 0.0924605 max: 0.974376
Interface Courant Number mean: 0.0161805 max: 0.974376
deltaT = 0.00208333
Time = 0.247917

PIMPLE: iteration 1
smoothSolver:  Solving for alpha.water, Initial residual = 0.00438796, Final residual = 1.90201e-10, No Iterations 4
Phase-1 volume fraction = 0.1259  Min(alpha.water) = -9.1471e-09  Max(alpha.water) = 1
MULES: Correcting alpha.water
MULES: Correcting alpha.water
Phase-1 volume fraction = 0.1259  Min(alpha.water) = -3.05234e-08  Max(alpha.water) = 1
DICPCG:  Solving for p_rgh, Initial residual = 0.0142434, Final residual = 0.000411133, No Iterations 1
time step continuity errors : sum local = 0.000387514, global = 6.63617e-11, cumulative = 0.000136437
DICPCG:  Solving for p_rgh, Initial residual = 0.000467906, Final residual = 2.30566e-05, No Iterations 8
time step continuity errors : sum local = 2.14465e-05, global = -6.63197e-09, cumulative = 0.00013643
DICPCG:  Solving for p_rgh, Initial residual = 6.31101e-05, Final residual = 8.13673e-08, No Iterations 65
time step continuity errors : sum local = 7.55158e-08, global = -4.45732e-10, cumulative = 0.00013643
ExecutionTime = 0.54 s  ClockTime = 0 s

Courant Number mean: 0.0923342 max: 0.972109
Interface Courant Number mean: 0.0158185 max: 0.972109
deltaT = 0.00208333
Time = 0.25

PIMPLE: iteration 1
smoothSolver:  Solving for alpha.water, Initial residual = 0.00444548, Final residual = 1.86334e-10, No Iterations 4
Phase-1 volume fraction = 0.1259  Min(alpha.water) = -8.8929e-09  Max(alpha.water) = 1
MULES: Correcting alpha.water
MULES: Correcting alpha.water
Phase-1 volume fraction = 0.1259  Min(alpha.water) = -3.59105e-08  Max(alpha.water) = 1
DICPCG:  Solving for p_rgh, Initial residual = 0.0132063, Final residual = 0.000427925, No Iterations 1
time step continuity errors : sum local = 0.000398794, global = -8.26757e-09, cumulative = 0.000136422
DICPCG:  Solving for p_rgh, Initial residual = 0.000496815, Final residual = 2.48145e-05, No Iterations 12
time step continuity errors : sum local = 2.28466e-05, global = 6.06647e-08, cumulative = 0.000136482
DICPCG:  Solving for p_rgh, Initial residual = 7.32648e-05, Final residual = 6.48819e-08, No Iterations 68
time step continuity errors : sum local = 5.96268e-08, global = -3.80791e-10, cumulative = 0.000136482
ExecutionTime = 0.55 s  ClockTime = 0 s

Courant Number mean: 0.092206 max: 0.971862
Interface Courant Number mean: 0.0158033 max: 0.971862
deltaT = 0.00208333
Time = 0.252083

PIMPLE: iteration 1
smoothSolver:  Solving for alpha.water, Initial residual = 0.00444872, Final residual = 9.95384e-09, No Iterations 3
Phase-1 volume fraction = 0.1259  Min(alpha.water) = -8.63512e-09  Max(alpha.water) = 1
MULES: Correcting alpha.water
MULES: Correcting alpha.water
Phase-1 volume fraction = 0.1259  Min(alpha.water) = -7.50561e-08  Max(alpha.water) = 1
DICPCG:  Solving for p_rgh, Initial residual = 0.0134339, Final residual = 0.00046208, No Iterations 1
time step continuity errors : sum local = 0.000426691, global = -6.07712e-09, cumulative = 0.000136476
DICPCG:  Solving for p_rgh, Initial residual = 0.000530992, Final residual = 2.53811e-05, No Iterations 12
time step continuity errors : sum local = 2.31725e-05, global = 4.74717e-08, cumulative = 0.000136523
DICPCG:  Solving for p_rgh, Initial residual = 7.6638e-05, Final residual = 7.07667e-08, No Iterations 68
[...]
ExecutionTime = 2.14 s  ClockTime = 2 s

Courant Number mean: 0.338589 max: 1.06153
Interface Courant Number mean: 0.0535243 max: 0.977807
deltaT = 0.00357143
Time = 0.95

PIMPLE: iteration 1
smoothSolver:  Solving for alpha.water, Initial residual = 0.00882986, Final residual = 3.15928e-10, No Iterations 4
Phase-1 volume fraction = 0.124641  Min(alpha.water) = -1.53443e-11  Max(alpha.water) = 1
MULES: Correcting alpha.water
MULES: Correcting alpha.water
Phase-1 volume fraction = 0.124641  Min(alpha.water) = -1.73933e-08  Max(alpha.water) = 1
DICPCG:  Solving for p_rgh, Initial residual = 0.0324162, Final residual = 0.00105973, No Iterations 2
time step continuity errors : sum local = 0.00115834, global = 4.40255e-07, cumulative = -0.00227947
DICPCG:  Solving for p_rgh, Initial residual = 0.00134726, Final residual = 6.67407e-05, No Iterations 7
time step continuity errors : sum local = 7.29691e-05, global = 3.22771e-07, cumulative = -0.00227915
DICPCG:  Solving for p_rgh, Initial residual = 0.000282267, Final residual = 9.45879e-08, No Iterations 49
time step continuity errors : sum local = 1.0331e-07, global = 4.45857e-09, cumulative = -0.00227914
ExecutionTime = 2.15 s  ClockTime = 2 s

Courant Number mean: 0.341359 max: 1.08609
Interface Courant Number mean: 0.0534403 max: 0.996986
deltaT = 0.003125
Time = 0.953125

PIMPLE: iteration 1
smoothSolver:  Solving for alpha.water, Initial residual = 0.00783075, Final residual = 8.88159e-09, No Iterations 3
Phase-1 volume fraction = 0.124641  Min(alpha.water) = -5.09979e-12  Max(alpha.water) = 1
MULES: Correcting alpha.water
MULES: Correcting alpha.water
Phase-1 volume fraction = 0.124641  Min(alpha.water) = -4.55028e-06  Max(alpha.water) = 1
DICPCG:  Solving for p_rgh, Initial residual = 0.0297897, Final residual = 0.000992889, No Iterations 2
time step continuity errors : sum local = 0.000878409, global = 3.68727e-07, cumulative = -0.00227877
DICPCG:  Solving for p_rgh, Initial residual = 0.0012403, Final residual = 4.56195e-05, No Iterations 7
time step continuity errors : sum local = 4.0429e-05, global = 4.03141e-07, cumulative = -0.00227837
DICPCG:  Solving for p_rgh, Initial residual = 0.000232505, Final residual = 8.36775e-08, No Iterations 48
time step continuity errors : sum local = 7.4192e-08, global = 1.01857e-09, cumulative = -0.00227837
ExecutionTime = 2.16 s  ClockTime = 2 s

Courant Number mean: 0.300687 max: 0.959353
Interface Courant Number mean: 0.0463425 max: 0.892424
deltaT = 0.003125
Time = 0.95625

PIMPLE: iteration 1
smoothSolver:  Solving for alpha.water, Initial residual = 0.00781988, Final residual = 9.56083e-09, No Iterations 3
Phase-1 volume fraction = 0.124641  Min(alpha.water) = -6.66579e-13  Max(alpha.water) = 1
MULES: Correcting alpha.water
MULES: Correcting alpha.water
Phase-1 volume fraction = 0.124641  Min(alpha.water) = -2.41095e-06  Max(alpha.water) = 1
DICPCG:  Solving for p_rgh, Initial residual = 0.0310486, Final residual = 0.0010648, No Iterations 2
time step continuity errors : sum local = 0.000954463, global = 1.92557e-07, cumulative = -0.00227818
DICPCG:  Solving for p_rgh, Initial residual = 0.00132558, Final residual = 6.27672e-05, No Iterations 7
time step continuity errors : sum local = 5.63086e-05, global = 3.22659e-07, cumulative = -0.00227786
DICPCG:  Solving for p_rgh, Initial residual = 0.000265514, Final residual = 8.02468e-08, No Iterations 49
time step continuity errors : sum local = 7.20375e-08, global = 7.57375e-10, cumulative = -0.00227785
ExecutionTime = 2.16 s  ClockTime = 2 s

Courant Number mean: 0.30269 max: 0.969229
Interface Courant Number mean: 0.0461797 max: 0.901775
deltaT = 0.003125
Time = 0.959375

PIMPLE: iteration 1
smoothSolver:  Solving for alpha.water, Initial residual = 0.00777057, Final residual = 1.66575e-10, No Iterations 4
Phase-1 volume fraction = 0.124641  Min(alpha.water) = -6.2114e-13  Max(alpha.water) = 1
MULES: Correcting alpha.water
MULES: Correcting alpha.water
Phase-1 volume fraction = 0.124641  Min(alpha.water) = -1.33717e-06  Max(alpha.water) = 1
DICPCG:  Solving for p_rgh, Initial residual = 0.0293274, Final residual = 0.00113467, No Iterations 2
time step continuity errors : sum local = 0.00100774, global = -1.23356e-07, cumulative = -0.00227798
DICPCG:  Solving for p_rgh, Initial residual = 0.00136392, Final residual = 6.16038e-05, No Iterations 7
time step continuity errors : sum local = 5.47255e-05, global = 3.08346e-07, cumulative = -0.00227767
DICPCG:  Solving for p_rgh, Initial residual = 0.000270278, Final residual = 8.90841e-08, No Iterations 48
time step continuity errors : sum local = 7.91556e-08, global = -4.64987e-11, cumulative = -0.00227767
ExecutionTime = 2.17 s  ClockTime = 2 s

Courant Number mean: 0.304531 max: 0.982571
Interface Courant Number mean: 0.0476567 max: 0.917756
deltaT = 0.003125
Time = 0.9625

PIMPLE: iteration 1
smoothSolver:  Solving for alpha.water, Initial residual = 0.00772174, Final residual = 2.22505e-10, No Iterations 4
Phase-1 volume fraction = 0.124641  Min(alpha.water) = -5.8411e-13  Max(alpha.water) = 1
MULES: Correcting alpha.water
MULES: Correcting alpha.water
Phase-1 volume fraction = 0.124641  Min(alpha.water) = -3.75096e-07  Max(alpha.water) = 1
DICPCG:  Solving for p_rgh, Initial residual = 0.0275637, Final residual = 0.00109688, No Iterations 2
time step continuity errors : sum local = 0.000965625, global = -2.07961e-07, cumulative = -0.00227788
DICPCG:  Solving for p_rgh, Initial residual = 0.00132432, Final residual = 6.1977e-05, No Iterations 7
time step continuity errors : sum local = 5.47944e-05, global = 2.16959e-07, cumulative = -0.00227766
DICPCG:  Solving for p_rgh, Initial residual = 0.000271315, Final residual = 9.94519e-08, No Iterations 48
time step continuity errors : sum local = 8.81113e-08, global = 6.61923e-10, cumulative = -0.00227766
ExecutionTime = 2.17 s  ClockTime = 2 s

Courant Number mean: 0.306172 max: 0.993609
Interface Courant Number mean: 0.0462258 max: 0.925016
deltaT = 0.003125
Time = 0.965625

PIMPLE: iteration 1
smoothSolver:  Solving for alpha.water, Initial residual = 0.00773528, Final residual = 2.9633e-10, No Iterations 4
Phase-1 volume fraction = 0.124641  Min(alpha.water) = -5.38329e-13  Max(alpha.water) = 1
MULES: Correcting alpha.water
MULES: Correcting alpha.water
Phase-1 volume fraction = 0.124641  Min(alpha.water) = -2.26401e-06  Max(alpha.water) = 1
DICPCG:  Solving for p_rgh, Initial residual = 0.0243967, Final residual = 0.0010774, No Iterations 2
time step continuity errors : sum local = 0.000956392, global = -2.09605e-07, cumulative = -0.00227787
DICPCG:  Solving for p_rgh, Initial residual = 0.00132162, Final residual = 6.52892e-05, No Iterations 7
time step continuity errors : sum local = 5.82172e-05, global = 3.12976e-07, cumulative = -0.00227756
DICPCG:  Solving for p_rgh, Initial residual = 0.000269405, Final residual = 7.62869e-08, No Iterations 49
time step continuity errors : sum local = 6.82667e-08, global = 4.3142e-09, cumulative = -0.00227755
ExecutionTime = 2.18 s  ClockTime = 2 s

Courant Number mean: 0.307819 max: 1.00286
Interface Courant Number mean: 0.0475429 max: 0.933881
deltaT = 0.003125
Time = 0.96875

PIMPLE: iteration 1
smoothSolver:  Solving for alpha.water, Initial residual = 0.00794416, Final residual = 3.70757e-10, No Iterations 4
Phase-1 volume fraction = 0.124641  Min(alpha.water) = -5.02691e-13  Max(alpha.water) = 1
MULES: Correcting alpha.water
MULES: Correcting alpha.water
Phase-1 volume fraction = 0.124641  Min(alpha.water) = -4.38577e-12  Max(alpha.water) = 1
DICPCG:  Solving for p_rgh, Initial residual = 0.0307027, Final residual = 0.0011112, No Iterations 2
time step continuity errors : sum local = 0.0010437, global = -5.41937e-06, cumulative = -0.00228297
DICPCG:  Solving for p_rgh, Initial residual = 0.00136753, Final residual = 6.2081e-05, No Iterations 9
time step continuity errors : sum local = 5.80996e-05, global = -3.75623e-07, cumulative = -0.00228335
DICPCG:  Solving for p_rgh, Initial residual = 0.000275084, Final residual = 9.32274e-08, No Iterations 49
time step continuity errors : sum local = 8.75388e-08, global = 5.61203e-09, cumulative = -0.00228334
ExecutionTime = 2.19 s  ClockTime = 2 s

Courant Number mean: 0.309311 max: 1.01533
Interface Courant Number mean: 0.0484571 max: 0.936531
deltaT = 0.003125
Time = 0.971875

PIMPLE: iteration 1
smoothSolver:  Solving for alpha.water, Initial residual = 0.00803094, Final residual = 4.53097e-10, No Iterations 4
Phase-1 volume fraction = 0.124641  Min(alpha.water) = -4.56678e-13  Max(alpha.water) = 1
MULES: Correcting alpha.water
MULES: Correcting alpha.water
Phase-1 volume fraction = 0.124641  Min(alpha.water) = -2.2112e-12  Max(alpha.water) = 1
DICPCG:  Solving for p_rgh, Initial residual = 0.0283575, Final residual = 0.00105576, No Iterations 2
time step continuity errors : sum local = 0.000984219, global = 1.99036e-07, cumulative = -0.00228314
DICPCG:  Solving for p_rgh, Initial residual = 0.0012953, Final residual = 6.03579e-05, No Iterations 9
time step continuity errors : sum local = 5.62166e-05, global = 5.67589e-07, cumulative = -0.00228258
DICPCG:  Solving for p_rgh, Initial residual = 0.000258729, Final residual = 9.88526e-08, No Iterations 48
time step continuity errors : sum local = 9.2458e-08, global = 6.05994e-09, cumulative = -0.00228257
ExecutionTime = 2.19 s  ClockTime = 2 s

Courant Number mean: 0.310646 max: 1.02098
Interface Courant Number mean: 0.0480769 max: 0.939035
deltaT = 0.003125
Time = 0.975

PIMPLE: iteration 1
smoothSolver:  Solving for alpha.water, Initial residual = 0.00810051, Final residual = 5.21205e-10, No Iterations 4
Phase-1 volume fraction = 0.124641  Min(alpha.water) = -4.32212e-13  Max(alpha.water) = 1
MULES: Correcting alpha.water
MULES: Correcting alpha.water
Phase-1 volume fraction = 0.124641  Min(alpha.water) = -7.49206e-11  Max(alpha.water) = 1
DICPCG:  Solving for p_rgh, Initial residual = 0.027142, Final residual = 0.00101534, No Iterations 2
time step continuity errors : sum local = 0.000947955, global = -4.61972e-07, cumulative = -0.00228303
DICPCG:  Solving for p_rgh, Initial residual = 0.00122892, Final residual = 5.64567e-05, No Iterations 9
time step continuity errors : sum local = 5.27218e-05, global = 1.29744e-07, cumulative = -0.0022829
DICPCG:  Solving for p_rgh, Initial residual = 0.000249573, Final residual = 8.55798e-08, No Iterations 46
time step continuity errors : sum local = 8.03444e-08, global = 5.88854e-09, cumulative = -0.0022829
ExecutionTime = 2.2 s  ClockTime = 2 s

Courant Number mean: 0.311833 max: 1.02675
Interface Courant Number mean: 0.048693 max: 0.938107
deltaT = 0.003125
Time = 0.978125

PIMPLE: iteration 1
smoothSolver:  Solving for alpha.water, Initial residual = 0.00818689, Final residual = 6.08121e-10, No Iterations 4
Phase-1 volume fraction = 0.124641  Min(alpha.water) = -4.10656e-13  Max(alpha.water) = 1
MULES: Correcting alpha.water
MULES: Correcting alpha.water
Phase-1 volume fraction = 0.124641  Min(alpha.water) = -5.58175e-11  Max(alpha.water) = 1
DICPCG:  Solving for p_rgh, Initial residual = 0.0325303, Final residual = 0.00113867, No Iterations 2
time step continuity errors : sum local = 0.00109475, global = -4.66754e-07, cumulative = -0.00228336
DICPCG:  Solving for p_rgh, Initial residual = 0.00140228, Final residual = 5.7756e-05, No Iterations 10
time step continuity errors : sum local = 5.52766e-05, global = 1.00013e-06, cumulative = -0.00228236
DICPCG:  Solving for p_rgh, Initial residual = 0.000268823, Final residual = 7.39149e-08, No Iterations 49
time step continuity errors : sum local = 7.10893e-08, global = 4.16516e-09, cumulative = -0.00228236
ExecutionTime = 2.2 s  ClockTime = 2 s

Courant Number mean: 0.312774 max: 1.02633
Interface Courant Number mean: 0.0493437 max: 0.948572
deltaT = 0.003125
Time = 0.98125

PIMPLE: iteration 1
smoothSolver:  Solving for alpha.water, Initial residual = 0.00824581, Final residual = 7.14109e-10, No Iterations 4
Phase-1 volume fraction = 0.124641  Min(alpha.water) = -3.89526e-13  Max(alpha.water) = 1
MULES: Correcting alpha.water
MULES: Correcting alpha.water
Phase-1 volume fraction = 0.124641  Min(alpha.water) = -6.99499e-06  Max(alpha.water) = 1
DICPCG:  Solving for p_rgh, Initial residual = 0.0297374, Final residual = 0.00109531, No Iterations 2
time step continuity errors : sum local = 0.00104438, global = -6.24296e-07, cumulative = -0.00228298
DICPCG:  Solving for p_rgh, Initial residual = 0.00134232, Final residual = 6.26984e-05, No Iterations 10
time step continuity errors : sum local = 5.96451e-05, global = 7.94998e-07, cumulative = -0.00228219
DICPCG:  Solving for p_rgh, Initial residual = 0.000265078, Final residual = 9.76313e-08, No Iterations 46
time step continuity errors : sum local = 9.3354e-08, global = -7.50345e-09, cumulative = -0.00228219
ExecutionTime = 2.21 s  ClockTime = 2 s

Courant Number mean: 0.313551 max: 1.02398
Interface Courant Number mean: 0.0491947 max: 0.980262
deltaT = 0.003125
Time = 0.984375

PIMPLE: iteration 1
smoothSolver:  Solving for alpha.water, Initial residual = 0.00816655, Final residual = 8.28216e-10, No Iterations 4
Phase-1 volume fraction = 0.124641  Min(alpha.water) = -3.65111e-13  Max(alpha.water) = 1
MULES: Correcting alpha.water
MULES: Correcting alpha.water
Phase-1 volume fraction = 0.124641  Min(alpha.water) = -2.37745e-12  Max(alpha.water) = 1
DICPCG:  Solving for p_rgh, Initial residual = 0.0281299, Final residual = 0.00107992, No Iterations 2
time step continuity errors : sum local = 0.0010308, global = -6.02169e-07, cumulative = -0.0022828
DICPCG:  Solving for p_rgh, Initial residual = 0.0013432, Final residual = 5.99254e-05, No Iterations 10
time step continuity errors : sum local = 5.71812e-05, global = -5.45851e-07, cumulative = -0.00228334
DICPCG:  Solving for p_rgh, Initial residual = 0.000261419, Final residual = 6.94943e-08, No Iterations 47
time step continuity errors : sum local = 6.67171e-08, global = -7.05127e-09, cumulative = -0.00228335
ExecutionTime = 2.22 s  ClockTime = 2 s

Courant Number mean: 0.314247 max: 1.03996
Interface Courant Number mean: 0.0483548 max: 1.01305
deltaT = 0.003125
Time = 0.9875

PIMPLE: iteration 1
smoothSolver:  Solving for alpha.water, Initial residual = 0.00812533, Final residual = 9.86814e-10, No Iterations 4
Phase-1 volume fraction = 0.124641  Min(alpha.water) = -3.45583e-13  Max(alpha.water) = 1
MULES: Correcting alpha.water
MULES: Correcting alpha.water
Phase-1 volume fraction = 0.124641  Min(alpha.water) = -3.86921e-06  Max(alpha.water) = 1
DICPCG:  Solving for p_rgh, Initial residual = 0.0266638, Final residual = 0.00104844, No Iterations 2
time step continuity errors : sum local = 0.0010087, global = -6.22917e-07, cumulative = -0.00228397
DICPCG:  Solving for p_rgh, Initial residual = 0.00128001, Final residual = 6.01327e-05, No Iterations 10
time step continuity errors : sum local = 5.79077e-05, global = 6.30194e-07, cumulative = -0.00228334
DICPCG:  Solving for p_rgh, Initial residual = 0.000256625, Final residual = 9.32991e-08, No Iterations 48
time step continuity errors : sum local = 9.03616e-08, global = 7.06282e-10, cumulative = -0.00228334
ExecutionTime = 2.22 s  ClockTime = 2 s

Courant Number mean: 0.314848 max: 1.04888
Interface Courant Number mean: 0.0484633 max: 1.04008
deltaT = 0.003125
Time = 0.990625

PIMPLE: iteration 1
smoothSolver:  Solving for alpha.water, Initial residual = 0.0080709, Final residual = 1.12567e-09, No Iterations 4
Phase-1 volume fraction = 0.124641  Min(alpha.water) = -3.20301e-13  Max(alpha.water) = 1
MULES: Correcting alpha.water
MULES: Correcting alpha.water
Phase-1 volume fraction = 0.124641  Min(alpha.water) = -7.26114e-06  Max(alpha.water) = 1
DICPCG:  Solving for p_rgh, Initial residual = 0.032346, Final residual = 0.00132866, No Iterations 2
time step continuity errors : sum local = 0.00133461, global = -9.25039e-07, cumulative = -0.00228427
DICPCG:  Solving for p_rgh, Initial residual = 0.00157897, Final residual = 7.05119e-05, No Iterations 12
time step continuity errors : sum local = 7.04367e-05, global = 3.21487e-06, cumulative = -0.00228105
DICPCG:  Solving for p_rgh, Initial residual = 0.000310692, Final residual = 9.197e-08, No Iterations 49
time step continuity errors : sum local = 9.25735e-08, global = -3.43887e-10, cumulative = -0.00228105
ExecutionTime = 2.23 s  ClockTime = 2 s

Courant Number mean: 0.315265 max: 1.05948
Interface Courant Number mean: 0.0498637 max: 1.05948
deltaT = 0.003125
Time = 0.99375

PIMPLE: iteration 1
smoothSolver:  Solving for alpha.water, Initial residual = 0.00805892, Final residual = 1.33383e-09, No Iterations 4
Phase-1 volume fraction = 0.124641  Min(alpha.water) = -3.00991e-13  Max(alpha.water) = 1
MULES: Correcting alpha.water
MULES: Correcting alpha.water
Phase-1 volume fraction = 0.124641  Min(alpha.water) = -1.11313e-05  Max(alpha.water) = 1
DICPCG:  Solving for p_rgh, Initial residual = 0.0292877, Final residual = 0.00108475, No Iterations 2
time step continuity errors : sum local = 0.00107505, global = -1.14329e-06, cumulative = -0.0022822
DICPCG:  Solving for p_rgh, Initial residual = 0.00134583, Final residual = 6.23101e-05, No Iterations 12
time step continuity errors : sum local = 6.14936e-05, global = 5.20177e-07, cumulative = -0.00228168
DICPCG:  Solving for p_rgh, Initial residual = 0.000280361, Final residual = 8.99247e-08, No Iterations 49
time step continuity errors : sum local = 8.94728e-08, global = 1.45304e-09, cumulative = -0.00228167
ExecutionTime = 2.24 s  ClockTime = 2 s

Courant Number mean: 0.315441 max: 1.07628
Interface Courant Number mean: 0.049108 max: 1.06477
deltaT = 0.003125
Time = 0.996875

PIMPLE: iteration 1
smoothSolver:  Solving for alpha.water, Initial residual = 0.00815627, Final residual = 1.46178e-09, No Iterations 4
Phase-1 volume fraction = 0.124641  Min(alpha.water) = -2.76608e-13  Max(alpha.water) = 1
MULES: Correcting alpha.water
MULES: Correcting alpha.water
Phase-1 volume fraction = 0.124641  Min(alpha.water) = -6.37906e-06  Max(alpha.water) = 1
DICPCG:  Solving for p_rgh, Initial residual = 0.029622, Final residual = 0.00099379, No Iterations 2
time step continuity errors : sum local = 0.00098031, global = -6.26611e-07, cumulative = -0.0022823
DICPCG:  Solving for p_rgh, Initial residual = 0.00125997, Final residual = 6.29399e-05, No Iterations 12
time step continuity errors : sum local = 6.20235e-05, global = 1.60512e-06, cumulative = -0.0022807
DICPCG:  Solving for p_rgh, Initial residual = 0.000276557, Final residual = 5.85256e-08, No Iterations 50
time step continuity errors : sum local = 5.81626e-08, global = 2.23406e-09, cumulative = -0.00228069
ExecutionTime = 2.24 s  ClockTime = 2 s

Courant Number mean: 0.315336 max: 1.12769
Interface Courant Number mean: 0.0494538 max: 1.07334
deltaT = 0.003125
Time = 1

PIMPLE: iteration 1
smoothSolver:  Solving for alpha.water, Initial residual = 0.00819679, Final residual = 1.58336e-09, No Iterations 4
Phase-1 volume fraction = 0.124641  Min(alpha.water) = -2.56813e-13  Max(alpha.water) = 1
MULES: Correcting alpha.water
MULES: Correcting alpha.water
Phase-1 volume fraction = 0.124641  Min(alpha.water) = -8.92173e-06  Max(alpha.water) = 1
DICPCG:  Solving for p_rgh, Initial residual = 0.0260323, Final residual = 0.000974063, No Iterations 2
time step continuity errors : sum local = 0.000955224, global = -7.7404e-07, cumulative = -0.00228147
DICPCG:  Solving for p_rgh, Initial residual = 0.00123602, Final residual = 4.84824e-05, No Iterations 13
time step continuity errors : sum local = 4.74538e-05, global = 2.48889e-06, cumulative = -0.00227898
DICPCG:  Solving for p_rgh, Initial residual = 0.000254313, Final residual = 7.64323e-08, No Iterations 50
time step continuity errors : sum local = 7.54673e-08, global = -1.32578e-09, cumulative = -0.00227898
ExecutionTime = 2.26 s  ClockTime = 2 s

End

