/*---------------------------------------------------------------------------*\
| =========                 |                                                 |
| \\      /  F ield         | OpenFOAM: The Open Source CFD Toolbox           |
|  \\    /   O peration     | Version:  2206                                  |
|   \\  /    A nd           | Website:  www.openfoam.com                      |
|    \\/     M anipulation  |                                                 |
\*---------------------------------------------------------------------------*/
Build  : _76d719d1-20220624 OPENFOAM=2206 version=2206
Arch   : "LSB;label=32;scalar=64"
Exec   : interFoam
Date   : Nov 28 2022
Time   : 16:38:11
Host   : LAPTOP-2J3LPIFO
PID    : 3422
I/O    : uncollated
Case   : /home/bepnos/PyFoamTesting/dijk_verplaatsingtest
nProcs : 1
trapFpe: Floating point exception trapping enabled (FOAM_SIGFPE).
fileModificationChecking : Monitoring run-time modified files using timeStampMaster (fileModificationSkew 5, maxFileModificationPolls 20)
allowSystemOperations : Allowing user-supplied system call operations

// * * * * * * * * * * * * * * * * * * * * * * * * * * * * * * * * * * * * * //
Create time

Create mesh for time = 0


PIMPLE: Operating solver in PISO mode

Reading field p_rgh

Reading field U

Reading/calculating face flux field phi

Reading transportProperties

Selecting incompressible transport model Newtonian
Selecting incompressible transport model Newtonian
Selecting turbulence model type laminar
Selecting laminar stress model Stokes

Reading g

Reading hRef
Calculating field g.h

No MRF models present

No finite volume options present
DICPCG:  Solving for pcorr, Initial residual = 0, Final residual = 0, No Iterations 0
time step continuity errors : sum local = 0, global = 0, cumulative = 0
Courant Number mean: 0 max: 0

Starting time loop

Sampled set:
    gauge_1 -> vtk
    gauge_2 -> vtk

Courant Number mean: 0 max: 0
Interface Courant Number mean: 0 max: 0
deltaT = 0.00119048
Time = 0.00119048

PIMPLE: iteration 1
smoothSolver:  Solving for alpha.water, Initial residual = 0, Final residual = 0, No Iterations 0
Phase-1 volume fraction = 0.131101  Min(alpha.water) = 0  Max(alpha.water) = 1
MULES: Correcting alpha.water
MULES: Correcting alpha.water
Phase-1 volume fraction = 0.131101  Min(alpha.water) = 0  Max(alpha.water) = 1
DICPCG:  Solving for p_rgh, Initial residual = 1, Final residual = 0.00312169, No Iterations 1
time step continuity errors : sum local = 0.000869681, global = -1.43493e-12, cumulative = -1.43493e-12
DICPCG:  Solving for p_rgh, Initial residual = 0.00146342, Final residual = 6.08618e-05, No Iterations 13
time step continuity errors : sum local = 3.61735e-05, global = -1.04411e-05, cumulative = -1.04411e-05
DICPCG:  Solving for p_rgh, Initial residual = 5.00601e-05, Final residual = 8.59604e-08, No Iterations 47
time step continuity errors : sum local = 6.2187e-08, global = 2.58436e-09, cumulative = -1.04385e-05
ExecutionTime = 0.03 s  ClockTime = 0 s

Courant Number mean: 0.00123632 max: 0.107246
Interface Courant Number mean: 0 max: 0
deltaT = 0.00140056
Time = 0.00259104

PIMPLE: iteration 1
smoothSolver:  Solving for alpha.water, Initial residual = 0.000284489, Final residual = 1.81859e-12, No Iterations 2
Phase-1 volume fraction = 0.131101  Min(alpha.water) = 0  Max(alpha.water) = 1
MULES: Correcting alpha.water
MULES: Correcting alpha.water
Phase-1 volume fraction = 0.131101  Min(alpha.water) = -3.81607e-13  Max(alpha.water) = 1
DICPCG:  Solving for p_rgh, Initial residual = 0.00310255, Final residual = 0.00010222, No Iterations 2
time step continuity errors : sum local = 8.77748e-05, global = 1.33624e-08, cumulative = -1.04252e-05
DICPCG:  Solving for p_rgh, Initial residual = 0.000211902, Final residual = 1.02766e-05, No Iterations 35
time step continuity errors : sum local = 8.82864e-06, global = 2.07344e-07, cumulative = -1.02178e-05
DICPCG:  Solving for p_rgh, Initial residual = 3.05555e-05, Final residual = 8.2247e-08, No Iterations 43
time step continuity errors : sum local = 7.06357e-08, global = -4.57094e-09, cumulative = -1.02224e-05
ExecutionTime = 0.04 s  ClockTime = 0 s

Courant Number mean: 0.00180525 max: 0.0552095
Interface Courant Number mean: 5.0521e-05 max: 0.0552095
deltaT = 0.00172377
Time = 0.0043148

PIMPLE: iteration 1
smoothSolver:  Solving for alpha.water, Initial residual = 0.000201859, Final residual = 9.98285e-14, No Iterations 2
Phase-1 volume fraction = 0.131101  Min(alpha.water) = 0  Max(alpha.water) = 1
MULES: Correcting alpha.water
MULES: Correcting alpha.water
Phase-1 volume fraction = 0.131101  Min(alpha.water) = -1.02827e-18  Max(alpha.water) = 1
DICPCG:  Solving for p_rgh, Initial residual = 0.00276747, Final residual = 6.279e-05, No Iterations 2
time step continuity errors : sum local = 7.3781e-05, global = -1.39633e-08, cumulative = -1.02364e-05
DICPCG:  Solving for p_rgh, Initial residual = 6.36852e-05, Final residual = 3.09465e-06, No Iterations 35
time step continuity errors : sum local = 3.63383e-06, global = -3.13746e-08, cumulative = -1.02677e-05
DICPCG:  Solving for p_rgh, Initial residual = 3.48418e-06, Final residual = 7.71357e-08, No Iterations 18
time step continuity errors : sum local = 9.06315e-08, global = -1.77567e-08, cumulative = -1.02855e-05
ExecutionTime = 0.05 s  ClockTime = 0 s

Courant Number mean: 0.0033366 max: 0.0543358
Interface Courant Number mean: 4.52755e-05 max: 0.0459017
deltaT = 0.00206852
Time = 0.00638332

PIMPLE: iteration 1
smoothSolver:  Solving for alpha.water, Initial residual = 0.000249405, Final residual = 1.15724e-13, No Iterations 2
Phase-1 volume fraction = 0.131101  Min(alpha.water) = 0  Max(alpha.water) = 1
MULES: Correcting alpha.water
MULES: Correcting alpha.water
Phase-1 volume fraction = 0.131101  Min(alpha.water) = -7.11435e-18  Max(alpha.water) = 1
DICPCG:  Solving for p_rgh, Initial residual = 0.0036485, Final residual = 0.000156408, No Iterations 1
time step continuity errors : sum local = 0.000242331, global = -3.31077e-08, cumulative = -1.03186e-05
DICPCG:  Solving for p_rgh, Initial residual = 0.00015939, Final residual = 7.60396e-06, No Iterations 9
time step continuity errors : sum local = 1.17589e-05, global = -2.84704e-07, cumulative = -1.06033e-05
DICPCG:  Solving for p_rgh, Initial residual = 8.07855e-06, Final residual = 9.24408e-08, No Iterations 40
time step continuity errors : sum local = 1.42987e-07, global = 1.77535e-08, cumulative = -1.05856e-05
ExecutionTime = 0.07 s  ClockTime = 0 s

Courant Number mean: 0.005731 max: 0.0656634
Interface Courant Number mean: 0.000180646 max: 0.0520803
deltaT = 0.00265953
Time = 0.00904285

PIMPLE: iteration 1
smoothSolver:  Solving for alpha.water, Initial residual = 0.000404288, Final residual = 1.29198e-12, No Iterations 2
Phase-1 volume fraction = 0.131101  Min(alpha.water) = 0  Max(alpha.water) = 1
MULES: Correcting alpha.water
MULES: Correcting alpha.water
Phase-1 volume fraction = 0.131101  Min(alpha.water) = -1.1239e-13  Max(alpha.water) = 1
DICPCG:  Solving for p_rgh, Initial residual = 0.00609504, Final residual = 0.000181283, No Iterations 1
time step continuity errors : sum local = 0.000433066, global = 1.03292e-07, cumulative = -1.04823e-05
DICPCG:  Solving for p_rgh, Initial residual = 0.00018427, Final residual = 8.0651e-06, No Iterations 9
time step continuity errors : sum local = 1.91912e-05, global = -5.99813e-08, cumulative = -1.05422e-05
DICPCG:  Solving for p_rgh, Initial residual = 9.19627e-06, Final residual = 8.5265e-08, No Iterations 40
time step continuity errors : sum local = 2.02957e-07, global = 1.67539e-08, cumulative = -1.05255e-05
ExecutionTime = 0.07 s  ClockTime = 0 s

Courant Number mean: 0.0103102 max: 0.091772
Interface Courant Number mean: 0.000390399 max: 0.0862541
deltaT = 0.00319143
Time = 0.0122343

PIMPLE: iteration 1
smoothSolver:  Solving for alpha.water, Initial residual = 0.000633697, Final residual = 9.1368e-12, No Iterations 2
Phase-1 volume fraction = 0.131101  Min(alpha.water) = 0  Max(alpha.water) = 1
MULES: Correcting alpha.water
MULES: Correcting alpha.water
Phase-1 volume fraction = 0.131101  Min(alpha.water) = -1.49446e-12  Max(alpha.water) = 1
DICPCG:  Solving for p_rgh, Initial residual = 0.00973077, Final residual = 0.000210743, No Iterations 1
time step continuity errors : sum local = 0.000687245, global = 5.35532e-08, cumulative = -1.04719e-05
DICPCG:  Solving for p_rgh, Initial residual = 0.000213418, Final residual = 1.04067e-05, No Iterations 9
time step continuity errors : sum local = 3.37187e-05, global = 1.92249e-07, cumulative = -1.02797e-05
DICPCG:  Solving for p_rgh, Initial residual = 1.33783e-05, Final residual = 8.19702e-08, No Iterations 41
time step continuity errors : sum local = 2.65772e-07, global = 7.73335e-09, cumulative = -1.0272e-05
ExecutionTime = 0.08 s  ClockTime = 0 s

Courant Number mean: 0.0166007 max: 0.140724
Interface Courant Number mean: 0.000718004 max: 0.136778
deltaT = 0.00425524
Time = 0.0164895

PIMPLE: iteration 1
smoothSolver:  Solving for alpha.water, Initial residual = 0.00108602, Final residual = 9.07032e-11, No Iterations 2
Phase-1 volume fraction = 0.131101  Min(alpha.water) = 0  Max(alpha.water) = 1
MULES: Correcting alpha.water
MULES: Correcting alpha.water
Phase-1 volume fraction = 0.131101  Min(alpha.water) = -3.22155e-11  Max(alpha.water) = 1
DICPCG:  Solving for p_rgh, Initial residual = 0.0168011, Final residual = 0.000267308, No Iterations 1
time step continuity errors : sum local = 0.00146579, global = 1.17571e-07, cumulative = -1.01544e-05
DICPCG:  Solving for p_rgh, Initial residual = 0.00027341, Final residual = 1.28037e-05, No Iterations 10
time step continuity errors : sum local = 6.94302e-05, global = 1.12092e-06, cumulative = -9.03346e-06
DICPCG:  Solving for p_rgh, Initial residual = 2.03827e-05, Final residual = 9.9086e-08, No Iterations 41
time step continuity errors : sum local = 5.37945e-07, global = 4.34736e-08, cumulative = -8.98999e-06
ExecutionTime = 0.08 s  ClockTime = 0 s

Courant Number mean: 0.0297377 max: 0.237448
Interface Courant Number mean: 0.00150823 max: 0.237448
deltaT = 0.00425524
Time = 0.0207448

PIMPLE: iteration 1
smoothSolver:  Solving for alpha.water, Initial residual = 0.00140525, Final residual = 2.1881e-10, No Iterations 2
Phase-1 volume fraction = 0.131101  Min(alpha.water) = 0  Max(alpha.water) = 1
MULES: Correcting alpha.water
MULES: Correcting alpha.water
Phase-1 volume fraction = 0.131101  Min(alpha.water) = -1.00095e-10  Max(alpha.water) = 1
DICPCG:  Solving for p_rgh, Initial residual = 0.0222414, Final residual = 0.000288488, No Iterations 1
time step continuity errors : sum local = 0.00151188, global = 2.27412e-07, cumulative = -8.76258e-06
DICPCG:  Solving for p_rgh, Initial residual = 0.000296465, Final residual = 1.32581e-05, No Iterations 11
time step continuity errors : sum local = 6.84667e-05, global = 2.81183e-06, cumulative = -5.95074e-06
DICPCG:  Solving for p_rgh, Initial residual = 2.49841e-05, Final residual = 9.39853e-08, No Iterations 39
time step continuity errors : sum local = 4.86482e-07, global = 3.12899e-08, cumulative = -5.91945e-06
ExecutionTime = 0.09 s  ClockTime = 0 s

Courant Number mean: 0.0372683 max: 0.281985
Interface Courant Number mean: 0.00187447 max: 0.281985
deltaT = 0.00425524
Time = 0.025

PIMPLE: iteration 1
smoothSolver:  Solving for alpha.water, Initial residual = 0.00171022, Final residual = 3.59696e-10, No Iterations 2
Phase-1 volume fraction = 0.131101  Min(alpha.water) = 0  Max(alpha.water) = 1
MULES: Correcting alpha.water
MULES: Correcting alpha.water
Phase-1 volume fraction = 0.131101  Min(alpha.water) = -1.56187e-09  Max(alpha.water) = 1
DICPCG:  Solving for p_rgh, Initial residual = 0.027155, Final residual = 0.000238678, No Iterations 1
time step continuity errors : sum local = 0.00119936, global = 1.68158e-07, cumulative = -5.7513e-06
DICPCG:  Solving for p_rgh, Initial residual = 0.000249307, Final residual = 1.24469e-05, No Iterations 11
time step continuity errors : sum local = 6.13856e-05, global = 7.09192e-07, cumulative = -5.0421e-06
DICPCG:  Solving for p_rgh, Initial residual = 2.5192e-05, Final residual = 9.57589e-08, No Iterations 39
time step continuity errors : sum local = 4.73642e-07, global = -2.20137e-08, cumulative = -5.06412e-06
ExecutionTime = 0.1 s  ClockTime = 0 s

Courant Number mean: 0.0449791 max: 0.334993
Interface Courant Number mean: 0.00235036 max: 0.326545
deltaT = 0.005
Time = 0.03

PIMPLE: iteration 1
smoothSolver:  Solving for alpha.water, Initial residual = 0.00240608, Final residual = 1.7691e-13, No Iterations 3
Phase-1 volume fraction = 0.131101  Min(alpha.water) = 0  Max(alpha.water) = 1
MULES: Correcting alpha.water
MULES: Correcting alpha.water
Phase-1 volume fraction = 0.131101  Min(alpha.water) = -4.09111e-09  Max(alpha.water) = 1
DICPCG:  Solving for p_rgh, Initial residual = 0.0379074, Final residual = 0.000268843, No Iterations 1
time step continuity errors : sum local = 0.00174312, global = 2.76543e-07, cumulative = -4.78757e-06
DICPCG:  Solving for p_rgh, Initial residual = 0.000287228, Final residual = 1.36654e-05, No Iterations 10
time step continuity errors : sum local = 8.62636e-05, global = 4.96331e-06, cumulative = 1.75735e-07
DICPCG:  Solving for p_rgh, Initial residual = 3.48219e-05, Final residual = 9.869e-08, No Iterations 39
time step continuity errors : sum local = 6.25335e-07, global = 1.2494e-08, cumulative = 1.88229e-07
ExecutionTime = 0.11 s  ClockTime = 0 s

Courant Number mean: 0.0633386 max: 0.439507
Interface Courant Number mean: 0.00339864 max: 0.423218
deltaT = 0.00666667
Time = 0.0366667

PIMPLE: iteration 1
smoothSolver:  Solving for alpha.water, Initial residual = 0.00377635, Final residual = 2.97767e-12, No Iterations 3
Phase-1 volume fraction = 0.131101  Min(alpha.water) = 0  Max(alpha.water) = 1
MULES: Correcting alpha.water
MULES: Correcting alpha.water
Phase-1 volume fraction = 0.131101  Min(alpha.water) = -4.94364e-10  Max(alpha.water) = 1
DICPCG:  Solving for p_rgh, Initial residual = 0.059249, Final residual = 0.000403176, No Iterations 1
time step continuity errors : sum local = 0.00414798, global = 1.11582e-06, cumulative = 1.30405e-06
DICPCG:  Solving for p_rgh, Initial residual = 0.000455932, Final residual = 2.09428e-05, No Iterations 10
time step continuity errors : sum local = 0.000205718, global = 1.62193e-05, cumulative = 1.75234e-05
DICPCG:  Solving for p_rgh, Initial residual = 6.9601e-05, Final residual = 8.34606e-08, No Iterations 42
time step continuity errors : sum local = 8.25584e-07, global = -1.1966e-07, cumulative = 1.74037e-05
ExecutionTime = 0.11 s  ClockTime = 0 s

Courant Number mean: 0.102639 max: 0.705503
Interface Courant Number mean: 0.00603276 max: 0.700731
deltaT = 0.00666667
Time = 0.0433333

PIMPLE: iteration 1
smoothSolver:  Solving for alpha.water, Initial residual = 0.004479, Final residual = 9.97477e-09, No Iterations 3
Phase-1 volume fraction = 0.131101  Min(alpha.water) = 0  Max(alpha.water) = 1
MULES: Correcting alpha.water
MULES: Correcting alpha.water
Phase-1 volume fraction = 0.131101  Min(alpha.water) = -9.55289e-11  Max(alpha.water) = 1
DICPCG:  Solving for p_rgh, Initial residual = 0.0702642, Final residual = 0.000515723, No Iterations 1
time step continuity errors : sum local = 0.00472119, global = 5.50105e-07, cumulative = 1.79538e-05
DICPCG:  Solving for p_rgh, Initial residual = 0.000600382, Final residual = 2.88849e-05, No Iterations 10
time step continuity errors : sum local = 0.000249725, global = 2.57083e-05, cumulative = 4.36621e-05
DICPCG:  Solving for p_rgh, Initial residual = 9.3274e-05, Final residual = 9.21499e-08, No Iterations 46
time step continuity errors : sum local = 8.06443e-07, global = -3.31364e-08, cumulative = 4.3629e-05
ExecutionTime = 0.12 s  ClockTime = 0 s

Courant Number mean: 0.120302 max: 0.800277
Interface Courant Number mean: 0.00912407 max: 0.76958
deltaT = 0.00666667
Time = 0.05

PIMPLE: iteration 1
smoothSolver:  Solving for alpha.water, Initial residual = 0.00514707, Final residual = 7.22759e-11, No Iterations 4
Phase-1 volume fraction = 0.131101  Min(alpha.water) = 0  Max(alpha.water) = 1
MULES: Correcting alpha.water
MULES: Correcting alpha.water
Phase-1 volume fraction = 0.131101  Min(alpha.water) = -3.1248e-10  Max(alpha.water) = 1
DICPCG:  Solving for p_rgh, Initial residual = 0.0743874, Final residual = 0.000661048, No Iterations 1
time step continuity errors : sum local = 0.00531408, global = 5.53039e-07, cumulative = 4.4182e-05
DICPCG:  Solving for p_rgh, Initial residual = 0.000766425, Final residual = 3.51461e-05, No Iterations 10
time step continuity errors : sum local = 0.000265662, global = 4.28638e-05, cumulative = 8.70458e-05
DICPCG:  Solving for p_rgh, Initial residual = 0.000124328, Final residual = 8.58127e-08, No Iterations 49
time step continuity errors : sum local = 6.60091e-07, global = 3.01289e-08, cumulative = 8.7076e-05
ExecutionTime = 0.13 s  ClockTime = 0 s

Courant Number mean: 0.137408 max: 0.896347
Interface Courant Number mean: 0.0111133 max: 0.860633
deltaT = 0.00833333
Time = 0.0583333

PIMPLE: iteration 1
smoothSolver:  Solving for alpha.water, Initial residual = 0.00723646, Final residual = 3.8912e-09, No Iterations 4
Phase-1 volume fraction = 0.131101  Min(alpha.water) = 0  Max(alpha.water) = 1
MULES: Correcting alpha.water
MULES: Correcting alpha.water
Phase-1 volume fraction = 0.131101  Min(alpha.water) = -1.57614e-09  Max(alpha.water) = 1
DICPCG:  Solving for p_rgh, Initial residual = 0.0790505, Final residual = 0.00114229, No Iterations 1
time step continuity errors : sum local = 0.0120591, global = 9.92454e-07, cumulative = 8.80684e-05
DICPCG:  Solving for p_rgh, Initial residual = 0.00135691, Final residual = 6.23978e-05, No Iterations 11
time step continuity errors : sum local = 0.000614431, global = 0.0001146, cumulative = 0.000202669
DICPCG:  Solving for p_rgh, Initial residual = 0.0002507, Final residual = 8.08078e-08, No Iterations 51
time step continuity errors : sum local = 8.19295e-07, global = -6.19032e-09, cumulative = 0.000202663
ExecutionTime = 0.14 s  ClockTime = 0 s

Courant Number mean: 0.19853 max: 1.23735
Interface Courant Number mean: 0.0179898 max: 1.20704
deltaT = 0.00833333
Time = 0.0666667

PIMPLE: iteration 1
smoothSolver:  Solving for alpha.water, Initial residual = 0.00830008, Final residual = 1.58481e-10, No Iterations 5
Phase-1 volume fraction = 0.131101  Min(alpha.water) = 0  Max(alpha.water) = 1
MULES: Correcting alpha.water
MULES: Correcting alpha.water
Phase-1 volume fraction = 0.131101  Min(alpha.water) = -3.06534e-10  Max(alpha.water) = 1
DICPCG:  Solving for p_rgh, Initial residual = 0.0603974, Final residual = 0.00174336, No Iterations 1
time step continuity errors : sum local = 0.0164425, global = -6.65548e-07, cumulative = 0.000201997
DICPCG:  Solving for p_rgh, Initial residual = 0.00201752, Final residual = 8.67015e-05, No Iterations 11
time step continuity errors : sum local = 0.000776755, global = 0.000184443, cumulative = 0.00038644
DICPCG:  Solving for p_rgh, Initial residual = 0.000334524, Final residual = 9.68202e-08, No Iterations 51
time step continuity errors : sum local = 9.00816e-07, global = 3.40152e-08, cumulative = 0.000386474
ExecutionTime = 0.15 s  ClockTime = 0 s

Courant Number mean: 0.223982 max: 1.58542
Interface Courant Number mean: 0.0230504 max: 1.32567
deltaT = 0.00416667
Time = 0.0708333

PIMPLE: iteration 1
smoothSolver:  Solving for alpha.water, Initial residual = 0.00463216, Final residual = 6.88669e-10, No Iterations 4
Phase-1 volume fraction = 0.131101  Min(alpha.water) = -1.67604e-10  Max(alpha.water) = 1
MULES: Correcting alpha.water
MULES: Correcting alpha.water
Phase-1 volume fraction = 0.131101  Min(alpha.water) = -1.17418e-08  Max(alpha.water) = 1
DICPCG:  Solving for p_rgh, Initial residual = 0.0292635, Final residual = 0.00120419, No Iterations 1
time step continuity errors : sum local = 0.00306661, global = -1.45368e-06, cumulative = 0.00038502
DICPCG:  Solving for p_rgh, Initial residual = 0.00131245, Final residual = 5.45551e-05, No Iterations 11
time step continuity errors : sum local = 0.000137033, global = 3.53825e-05, cumulative = 0.000420403
DICPCG:  Solving for p_rgh, Initial residual = 0.000144539, Final residual = 9.41023e-08, No Iterations 48
time step continuity errors : sum local = 2.41529e-07, global = 4.87417e-09, cumulative = 0.000420407
ExecutionTime = 0.15 s  ClockTime = 0 s

Courant Number mean: 0.117668 max: 0.877192
Interface Courant Number mean: 0.0111141 max: 0.672863
deltaT = 0.00416667
Time = 0.075

PIMPLE: iteration 1
smoothSolver:  Solving for alpha.water, Initial residual = 0.00485778, Final residual = 6.26969e-10, No Iterations 4
Phase-1 volume fraction = 0.131101  Min(alpha.water) = -7.707e-11  Max(alpha.water) = 1
MULES: Correcting alpha.water
MULES: Correcting alpha.water
Phase-1 volume fraction = 0.131101  Min(alpha.water) = -6.72278e-09  Max(alpha.water) = 1
DICPCG:  Solving for p_rgh, Initial residual = 0.0523906, Final residual = 0.000618808, No Iterations 1
time step continuity errors : sum local = 0.0019182, global = -5.37819e-07, cumulative = 0.00041987
DICPCG:  Solving for p_rgh, Initial residual = 0.000702528, Final residual = 3.24394e-05, No Iterations 11
time step continuity errors : sum local = 9.59044e-05, global = 1.97503e-05, cumulative = 0.00043962
DICPCG:  Solving for p_rgh, Initial residual = 9.94995e-05, Final residual = 6.93429e-08, No Iterations 48
time step continuity errors : sum local = 2.0832e-07, global = 7.40494e-10, cumulative = 0.000439621
ExecutionTime = 0.15 s  ClockTime = 0 s

Courant Number mean: 0.123523 max: 0.998094
Interface Courant Number mean: 0.0112979 max: 0.722205
deltaT = 0.00416667
Time = 0.0791667

PIMPLE: iteration 1
smoothSolver:  Solving for alpha.water, Initial residual = 0.00511446, Final residual = 5.95653e-10, No Iterations 4
Phase-1 volume fraction = 0.131101  Min(alpha.water) = -2.1487e-11  Max(alpha.water) = 1
MULES: Correcting alpha.water
MULES: Correcting alpha.water
Phase-1 volume fraction = 0.131101  Min(alpha.water) = -6.25491e-09  Max(alpha.water) = 1
DICPCG:  Solving for p_rgh, Initial residual = 0.0572344, Final residual = 0.000757388, No Iterations 1
time step continuity errors : sum local = 0.00228438, global = -1.93362e-07, cumulative = 0.000439427
DICPCG:  Solving for p_rgh, Initial residual = 0.000864991, Final residual = 3.98913e-05, No Iterations 11
time step continuity errors : sum local = 0.000114029, global = 2.1692e-05, cumulative = 0.000461119
DICPCG:  Solving for p_rgh, Initial residual = 0.000125639, Final residual = 8.46438e-08, No Iterations 48
time step continuity errors : sum local = 2.46309e-07, global = 3.54083e-09, cumulative = 0.000461123
ExecutionTime = 0.16 s  ClockTime = 0 s

Courant Number mean: 0.129507 max: 1.16567
Interface Courant Number mean: 0.0123791 max: 0.759377
deltaT = 0.00347222
Time = 0.0826389

PIMPLE: iteration 1
smoothSolver:  Solving for alpha.water, Initial residual = 0.0044875, Final residual = 2.0289e-10, No Iterations 4
Phase-1 volume fraction = 0.131101  Min(alpha.water) = -1.70263e-11  Max(alpha.water) = 1
MULES: Correcting alpha.water
MULES: Correcting alpha.water
Phase-1 volume fraction = 0.131101  Min(alpha.water) = -1.75707e-09  Max(alpha.water) = 1
DICPCG:  Solving for p_rgh, Initial residual = 0.0421012, Final residual = 0.000913145, No Iterations 1
time step continuity errors : sum local = 0.00179372, global = -2.16607e-07, cumulative = 0.000460906
DICPCG:  Solving for p_rgh, Initial residual = 0.00101621, Final residual = 3.84389e-05, No Iterations 11
time step continuity errors : sum local = 7.26742e-05, global = 1.70961e-05, cumulative = 0.000478002
DICPCG:  Solving for p_rgh, Initial residual = 0.000122383, Final residual = 8.18365e-08, No Iterations 48
time step continuity errors : sum local = 1.57349e-07, global = 5.19097e-09, cumulative = 0.000478007
ExecutionTime = 0.18 s  ClockTime = 0 s

Courant Number mean: 0.111974 max: 1.13746
Interface Courant Number mean: 0.0103599 max: 0.650563
deltaT = 0.00289352
Time = 0.0855324

PIMPLE: iteration 1
smoothSolver:  Solving for alpha.water, Initial residual = 0.00390141, Final residual = 7.53476e-09, No Iterations 3
Phase-1 volume fraction = 0.131101  Min(alpha.water) = -1.35471e-11  Max(alpha.water) = 1
MULES: Correcting alpha.water
MULES: Correcting alpha.water
Phase-1 volume fraction = 0.131101  Min(alpha.water) = -4.76955e-09  Max(alpha.water) = 1
DICPCG:  Solving for p_rgh, Initial residual = 0.0326748, Final residual = 0.00103756, No Iterations 1
time step continuity errors : sum local = 0.00137955, global = -1.68077e-07, cumulative = 0.000477839
DICPCG:  Solving for p_rgh, Initial residual = 0.0011376, Final residual = 5.01289e-05, No Iterations 11
time step continuity errors : sum local = 6.49431e-05, global = 1.24918e-05, cumulative = 0.000490331
DICPCG:  Solving for p_rgh, Initial residual = 0.000125502, Final residual = 7.96602e-08, No Iterations 48
time step continuity errors : sum local = 1.04673e-07, global = 2.43177e-09, cumulative = 0.000490334
ExecutionTime = 0.18 s  ClockTime = 0 s

Courant Number mean: 0.0962217 max: 1.05832
Interface Courant Number mean: 0.00852924 max: 0.64167
deltaT = 0.00289352
Time = 0.0884259

PIMPLE: iteration 1
smoothSolver:  Solving for alpha.water, Initial residual = 0.00401377, Final residual = 7.73569e-09, No Iterations 3
Phase-1 volume fraction = 0.131101  Min(alpha.water) = -1.06393e-11  Max(alpha.water) = 1
MULES: Correcting alpha.water
MULES: Correcting alpha.water
Phase-1 volume fraction = 0.131101  Min(alpha.water) = -1.05491e-08  Max(alpha.water) = 1
DICPCG:  Solving for p_rgh, Initial residual = 0.0306298, Final residual = 0.000923039, No Iterations 1
time step continuity errors : sum local = 0.00123905, global = -1.08399e-07, cumulative = 0.000490225
DICPCG:  Solving for p_rgh, Initial residual = 0.00103053, Final residual = 4.83333e-05, No Iterations 11
time step continuity errors : sum local = 6.33034e-05, global = 1.21843e-05, cumulative = 0.00050241
DICPCG:  Solving for p_rgh, Initial residual = 0.000117503, Final residual = 8.9337e-08, No Iterations 47
time step continuity errors : sum local = 1.18545e-07, global = -4.45789e-09, cumulative = 0.000502405
ExecutionTime = 0.19 s  ClockTime = 0 s

Courant Number mean: 0.0990106 max: 1.15781
Interface Courant Number mean: 0.00856656 max: 0.659204
deltaT = 0.00231481
Time = 0.0907407

PIMPLE: iteration 1
smoothSolver:  Solving for alpha.water, Initial residual = 0.00329754, Final residual = 2.37517e-09, No Iterations 3
Phase-1 volume fraction = 0.131101  Min(alpha.water) = -8.81055e-12  Max(alpha.water) = 1
MULES: Correcting alpha.water
MULES: Correcting alpha.water
Phase-1 volume fraction = 0.131101  Min(alpha.water) = -1.30189e-08  Max(alpha.water) = 1
DICPCG:  Solving for p_rgh, Initial residual = 0.0291665, Final residual = 0.000727124, No Iterations 1
time step continuity errors : sum local = 0.00067639, global = -1.21935e-07, cumulative = 0.000502283
DICPCG:  Solving for p_rgh, Initial residual = 0.000793981, Final residual = 3.62918e-05, No Iterations 11
time step continuity errors : sum local = 3.30235e-05, global = 6.1228e-06, cumulative = 0.000508406
DICPCG:  Solving for p_rgh, Initial residual = 8.14848e-05, Final residual = 7.20835e-08, No Iterations 47
time step continuity errors : sum local = 6.62894e-08, global = -1.0862e-09, cumulative = 0.000508405
ExecutionTime = 0.2 s  ClockTime = 0 s

Courant Number mean: 0.0808344 max: 0.9875
Interface Courant Number mean: 0.00692206 max: 0.539133
deltaT = 0.00231481
Time = 0.0930556

PIMPLE: iteration 1
smoothSolver:  Solving for alpha.water, Initial residual = 0.00340483, Final residual = 2.37284e-09, No Iterations 3
Phase-1 volume fraction = 0.131101  Min(alpha.water) = -7.19737e-12  Max(alpha.water) = 1
MULES: Correcting alpha.water
MULES: Correcting alpha.water
Phase-1 volume fraction = 0.131101  Min(alpha.water) = -5.80074e-08  Max(alpha.water) = 1
DICPCG:  Solving for p_rgh, Initial residual = 0.0342198, Final residual = 0.000515955, No Iterations 1
time step continuity errors : sum local = 0.000521755, global = -5.69834e-08, cumulative = 0.000508348
DICPCG:  Solving for p_rgh, Initial residual = 0.000572973, Final residual = 2.44709e-05, No Iterations 12
time step continuity errors : sum local = 2.39875e-05, global = 4.2123e-06, cumulative = 0.00051256
DICPCG:  Solving for p_rgh, Initial residual = 6.32583e-05, Final residual = 6.79012e-08, No Iterations 47
time step continuity errors : sum local = 6.71767e-08, global = 6.73434e-10, cumulative = 0.000512561
ExecutionTime = 0.2 s  ClockTime = 0 s

Courant Number mean: 0.0824711 max: 1.03984
Interface Courant Number mean: 0.00760452 max: 0.91034
deltaT = 0.00231481
Time = 0.0953704

PIMPLE: iteration 1
smoothSolver:  Solving for alpha.water, Initial residual = 0.00349955, Final residual = 2.6858e-09, No Iterations 3
Phase-1 volume fraction = 0.131101  Min(alpha.water) = -5.74232e-12  Max(alpha.water) = 1
MULES: Correcting alpha.water
MULES: Correcting alpha.water
Phase-1 volume fraction = 0.131101  Min(alpha.water) = -5.84267e-09  Max(alpha.water) = 1
DICPCG:  Solving for p_rgh, Initial residual = 0.0387709, Final residual = 0.000534631, No Iterations 1
time step continuity errors : sum local = 0.000551124, global = -2.39118e-08, cumulative = 0.000512537
DICPCG:  Solving for p_rgh, Initial residual = 0.00059586, Final residual = 2.25383e-05, No Iterations 12
time step continuity errors : sum local = 2.2422e-05, global = 3.75894e-06, cumulative = 0.000516296
DICPCG:  Solving for p_rgh, Initial residual = 6.47034e-05, Final residual = 7.42628e-08, No Iterations 47
time step continuity errors : sum local = 7.45803e-08, global = 8.6345e-10, cumulative = 0.000516297
ExecutionTime = 0.21 s  ClockTime = 0 s

Courant Number mean: 0.0841706 max: 1.10167
Interface Courant Number mean: 0.00757439 max: 0.904886
deltaT = 0.00231481
Time = 0.0976852

PIMPLE: iteration 1
smoothSolver:  Solving for alpha.water, Initial residual = 0.0035979, Final residual = 3.19054e-09, No Iterations 3
Phase-1 volume fraction = 0.131101  Min(alpha.water) = -4.5213e-12  Max(alpha.water) = 1
MULES: Correcting alpha.water
MULES: Correcting alpha.water
Phase-1 volume fraction = 0.131101  Min(alpha.water) = -2.16244e-09  Max(alpha.water) = 1
DICPCG:  Solving for p_rgh, Initial residual = 0.0358969, Final residual = 0.000710689, No Iterations 1
time step continuity errors : sum local = 0.000690915, global = -1.2235e-08, cumulative = 0.000516285
DICPCG:  Solving for p_rgh, Initial residual = 0.000783825, Final residual = 2.80494e-05, No Iterations 12
time step continuity errors : sum local = 2.63855e-05, global = 5.06595e-06, cumulative = 0.00052135
DICPCG:  Solving for p_rgh, Initial residual = 8.41635e-05, Final residual = 7.37799e-08, No Iterations 48
time step continuity errors : sum local = 7.00865e-08, global = 1.25785e-09, cumulative = 0.000521352
ExecutionTime = 0.21 s  ClockTime = 0 s

Courant Number mean: 0.0858932 max: 1.14243
Interface Courant Number mean: 0.00788078 max: 1.0029
deltaT = 0.00231481
Time = 0.1

PIMPLE: iteration 1
smoothSolver:  Solving for alpha.water, Initial residual = 0.00369577, Final residual = 3.66128e-09, No Iterations 3
Phase-1 volume fraction = 0.131101  Min(alpha.water) = -4.05949e-12  Max(alpha.water) = 1
MULES: Correcting alpha.water
MULES: Correcting alpha.water
Phase-1 volume fraction = 0.131101  Min(alpha.water) = -1.07237e-11  Max(alpha.water) = 1
DICPCG:  Solving for p_rgh, Initial residual = 0.033175, Final residual = 0.000863693, No Iterations 1
time step continuity errors : sum local = 0.000798592, global = -2.6959e-08, cumulative = 0.000521325
DICPCG:  Solving for p_rgh, Initial residual = 0.000953777, Final residual = 3.3596e-05, No Iterations 12
time step continuity errors : sum local = 3.01642e-05, global = 5.891e-06, cumulative = 0.000527216
DICPCG:  Solving for p_rgh, Initial residual = 0.000106417, Final residual = 8.44058e-08, No Iterations 48
time step continuity errors : sum local = 7.65675e-08, global = 6.81865e-10, cumulative = 0.000527216
ExecutionTime = 0.23 s  ClockTime = 0 s

Courant Number mean: 0.0877366 max: 1.14568
Interface Courant Number mean: 0.00843453 max: 1.06479
deltaT = 0.00208333
Time = 0.102083

PIMPLE: iteration 1
smoothSolver:  Solving for alpha.water, Initial residual = 0.00340661, Final residual = 2.3533e-09, No Iterations 3
Phase-1 volume fraction = 0.131101  Min(alpha.water) = -3.62252e-12  Max(alpha.water) = 1
MULES: Correcting alpha.water
MULES: Correcting alpha.water
Phase-1 volume fraction = 0.131101  Min(alpha.water) = -5.309e-12  Max(alpha.water) = 1
DICPCG:  Solving for p_rgh, Initial residual = 0.0293372, Final residual = 0.000728498, No Iterations 1
time step continuity errors : sum local = 0.000545246, global = -3.76414e-08, cumulative = 0.000527179
DICPCG:  Solving for p_rgh, Initial residual = 0.000803037, Final residual = 3.68014e-05, No Iterations 11
time step continuity errors : sum local = 2.68698e-05, global = 4.53891e-06, cumulative = 0.000531718
DICPCG:  Solving for p_rgh, Initial residual = 8.5014e-05, Final residual = 9.17701e-08, No Iterations 46
time step continuity errors : sum local = 6.76273e-08, global = -6.42301e-10, cumulative = 0.000531717
ExecutionTime = 0.23 s  ClockTime = 0 s

Courant Number mean: 0.0803738 max: 1.01847
Interface Courant Number mean: 0.00817292 max: 1.01847
deltaT = 0.00208333
Time = 0.104167

PIMPLE: iteration 1
smoothSolver:  Solving for alpha.water, Initial residual = 0.00345558, Final residual = 2.62083e-09, No Iterations 3
Phase-1 volume fraction = 0.131101  Min(alpha.water) = -3.15756e-12  Max(alpha.water) = 1
MULES: Correcting alpha.water
MULES: Correcting alpha.water
Phase-1 volume fraction = 0.131101  Min(alpha.water) = -1.6266e-11  Max(alpha.water) = 1
DICPCG:  Solving for p_rgh, Initial residual = 0.0287177, Final residual = 0.000691782, No Iterations 1
time step continuity errors : sum local = 0.00051854, global = -4.23313e-08, cumulative = 0.000531675
DICPCG:  Solving for p_rgh, Initial residual = 0.000767226, Final residual = 3.72801e-05, No Iterations 11
time step continuity errors : sum local = 2.72681e-05, global = 4.25152e-06, cumulative = 0.000535926
DICPCG:  Solving for p_rgh, Initial residual = 8.00589e-05, Final residual = 8.56815e-08, No Iterations 46
time step continuity errors : sum local = 6.32332e-08, global = -2.50842e-09, cumulative = 0.000535924
ExecutionTime = 0.24 s  ClockTime = 0 s

Courant Number mean: 0.0816573 max: 1.00366
Interface Courant Number mean: 0.0079231 max: 1.00366
deltaT = 0.00208333
Time = 0.10625

PIMPLE: iteration 1
smoothSolver:  Solving for alpha.water, Initial residual = 0.00351441, Final residual = 2.95379e-09, No Iterations 3
Phase-1 volume fraction = 0.131101  Min(alpha.water) = -2.65791e-12  Max(alpha.water) = 1
MULES: Correcting alpha.water
MULES: Correcting alpha.water
Phase-1 volume fraction = 0.131101  Min(alpha.water) = -1.3674e-10  Max(alpha.water) = 1
DICPCG:  Solving for p_rgh, Initial residual = 0.0284555, Final residual = 0.000696581, No Iterations 1
time step continuity errors : sum local = 0.000526372, global = -4.78789e-08, cumulative = 0.000535876
DICPCG:  Solving for p_rgh, Initial residual = 0.000775687, Final residual = 3.46546e-05, No Iterations 11
time step continuity errors : sum local = 2.55639e-05, global = 4.1215e-06, cumulative = 0.000539997
DICPCG:  Solving for p_rgh, Initial residual = 7.88139e-05, Final residual = 8.6136e-08, No Iterations 46
time step continuity errors : sum local = 6.41071e-08, global = -2.7661e-09, cumulative = 0.000539995
ExecutionTime = 0.25 s  ClockTime = 0 s

Courant Number mean: 0.0828943 max: 0.996479
Interface Courant Number mean: 0.0077675 max: 0.996479
deltaT = 0.00208333
Time = 0.108333

PIMPLE: iteration 1
smoothSolver:  Solving for alpha.water, Initial residual = 0.0036032, Final residual = 3.14548e-09, No Iterations 3
Phase-1 volume fraction = 0.131101  Min(alpha.water) = -2.13341e-12  Max(alpha.water) = 1
MULES: Correcting alpha.water
MULES: Correcting alpha.water
Phase-1 volume fraction = 0.131101  Min(alpha.water) = -1.58695e-10  Max(alpha.water) = 1
DICPCG:  Solving for p_rgh, Initial residual = 0.0287633, Final residual = 0.000686607, No Iterations 1
time step continuity errors : sum local = 0.000531191, global = -4.20566e-08, cumulative = 0.000539953
DICPCG:  Solving for p_rgh, Initial residual = 0.000768313, Final residual = 3.61861e-05, No Iterations 11
time step continuity errors : sum local = 2.73471e-05, global = 4.04196e-06, cumulative = 0.000543995
DICPCG:  Solving for p_rgh, Initial residual = 8.40249e-05, Final residual = 9.81246e-08, No Iterations 46
time step continuity errors : sum local = 7.48085e-08, global = -3.91943e-09, cumulative = 0.000543991
ExecutionTime = 0.25 s  ClockTime = 0 s

Courant Number mean: 0.084165 max: 0.994862
Interface Courant Number mean: 0.00798635 max: 0.994862
deltaT = 0.00208333
Time = 0.110417

PIMPLE: iteration 1
smoothSolver:  Solving for alpha.water, Initial residual = 0.00368618, Final residual = 3.56037e-09, No Iterations 3
Phase-1 volume fraction = 0.131101  Min(alpha.water) = -1.56416e-12  Max(alpha.water) = 1
MULES: Correcting alpha.water
MULES: Correcting alpha.water
Phase-1 volume fraction = 0.131101  Min(alpha.water) = -2.16806e-10  Max(alpha.water) = 1
DICPCG:  Solving for p_rgh, Initial residual = 0.0307614, Final residual = 0.000571626, No Iterations 1
time step continuity errors : sum local = 0.000469251, global = -3.93606e-08, cumulative = 0.000543951
DICPCG:  Solving for p_rgh, Initial residual = 0.000649203, Final residual = 2.16722e-05, No Iterations 12
time step continuity errors : sum local = 1.72964e-05, global = 3.25192e-06, cumulative = 0.000547203
DICPCG:  Solving for p_rgh, Initial residual = 7.03686e-05, Final residual = 8.91356e-08, No Iterations 46
time step continuity errors : sum local = 7.17535e-08, global = -2.80471e-09, cumulative = 0.0005472
ExecutionTime = 0.26 s  ClockTime = 0 s

Courant Number mean: 0.0854888 max: 1.00495
Interface Courant Number mean: 0.00848452 max: 1.00495
deltaT = 0.00208333
Time = 0.1125

PIMPLE: iteration 1
smoothSolver:  Solving for alpha.water, Initial residual = 0.00373752, Final residual = 3.99756e-09, No Iterations 3
Phase-1 volume fraction = 0.131101  Min(alpha.water) = -1.27039e-12  Max(alpha.water) = 1
MULES: Correcting alpha.water
MULES: Correcting alpha.water
Phase-1 volume fraction = 0.131101  Min(alpha.water) = -8.41392e-11  Max(alpha.water) = 1
DICPCG:  Solving for p_rgh, Initial residual = 0.0355471, Final residual = 0.000622225, No Iterations 1
time step continuity errors : sum local = 0.00052322, global = -1.84158e-08, cumulative = 0.000547182
DICPCG:  Solving for p_rgh, Initial residual = 0.000715701, Final residual = 3.52034e-05, No Iterations 11
time step continuity errors : sum local = 2.86291e-05, global = 3.23638e-06, cumulative = 0.000550418
DICPCG:  Solving for p_rgh, Initial residual = 8.55261e-05, Final residual = 9.9734e-08, No Iterations 47
time step continuity errors : sum local = 8.17786e-08, global = -8.69499e-10, cumulative = 0.000550417
ExecutionTime = 0.26 s  ClockTime = 0 s

Courant Number mean: 0.0868782 max: 1.03466
Interface Courant Number mean: 0.00826865 max: 1.03466
deltaT = 0.00208333
Time = 0.114583

PIMPLE: iteration 1
smoothSolver:  Solving for alpha.water, Initial residual = 0.00379253, Final residual = 4.27013e-09, No Iterations 3
Phase-1 volume fraction = 0.131101  Min(alpha.water) = -1.10415e-12  Max(alpha.water) = 1
MULES: Correcting alpha.water
MULES: Correcting alpha.water
Phase-1 volume fraction = 0.131101  Min(alpha.water) = -3.36475e-11  Max(alpha.water) = 1
DICPCG:  Solving for p_rgh, Initial residual = 0.0320181, Final residual = 0.000689836, No Iterations 1
time step continuity errors : sum local = 0.000551953, global = -1.70761e-08, cumulative = 0.0005504
DICPCG:  Solving for p_rgh, Initial residual = 0.000790595, Final residual = 3.46116e-05, No Iterations 11
time step continuity errors : sum local = 2.69093e-05, global = 3.91776e-06, cumulative = 0.000554318
DICPCG:  Solving for p_rgh, Initial residual = 9.16619e-05, Final residual = 9.41811e-08, No Iterations 47
time step continuity errors : sum local = 7.38247e-08, global = -7.76519e-10, cumulative = 0.000554317
ExecutionTime = 0.27 s  ClockTime = 0 s

Courant Number mean: 0.0882126 max: 1.09286
Interface Courant Number mean: 0.008197 max: 1.09286
deltaT = 0.00208333
Time = 0.116667

PIMPLE: iteration 1
smoothSolver:  Solving for alpha.water, Initial residual = 0.003872, Final residual = 4.44152e-09, No Iterations 3
Phase-1 volume fraction = 0.131101  Min(alpha.water) = -9.09771e-13  Max(alpha.water) = 1
MULES: Correcting alpha.water
MULES: Correcting alpha.water
Phase-1 volume fraction = 0.131101  Min(alpha.water) = -8.91509e-12  Max(alpha.water) = 1
DICPCG:  Solving for p_rgh, Initial residual = 0.0305204, Final residual = 0.000604049, No Iterations 1
time step continuity errors : sum local = 0.000473488, global = -3.78851e-08, cumulative = 0.000554279
DICPCG:  Solving for p_rgh, Initial residual = 0.0007017, Final residual = 3.33629e-05, No Iterations 11
time step continuity errors : sum local = 2.54319e-05, global = 3.24968e-06, cumulative = 0.000557529
DICPCG:  Solving for p_rgh, Initial residual = 8.38128e-05, Final residual = 8.11724e-08, No Iterations 42
time step continuity errors : sum local = 6.2449e-08, global = -1.17461e-08, cumulative = 0.000557517
ExecutionTime = 0.28 s  ClockTime = 0 s

Courant Number mean: 0.0893841 max: 1.16452
Interface Courant Number mean: 0.00835948 max: 1.16452
deltaT = 0.00166667
Time = 0.118333

PIMPLE: iteration 1
smoothSolver:  Solving for alpha.water, Initial residual = 0.00314647, Final residual = 1.33277e-09, No Iterations 3
Phase-1 volume fraction = 0.131101  Min(alpha.water) = -7.58228e-13  Max(alpha.water) = 1
MULES: Correcting alpha.water
MULES: Correcting alpha.water
Phase-1 volume fraction = 0.131101  Min(alpha.water) = -4.76117e-12  Max(alpha.water) = 1
DICPCG:  Solving for p_rgh, Initial residual = 0.0252356, Final residual = 0.000534428, No Iterations 1
time step continuity errors : sum local = 0.000270021, global = -4.92845e-08, cumulative = 0.000557468
DICPCG:  Solving for p_rgh, Initial residual = 0.00059909, Final residual = 2.37024e-05, No Iterations 11
time step continuity errors : sum local = 1.17171e-05, global = 1.71633e-06, cumulative = 0.000559184
DICPCG:  Solving for p_rgh, Initial residual = 5.62145e-05, Final residual = 7.03091e-08, No Iterations 39
time step continuity errors : sum local = 3.5021e-08, global = 3.58216e-09, cumulative = 0.000559188
ExecutionTime = 0.28 s  ClockTime = 0 s

Courant Number mean: 0.0721508 max: 0.973145
Interface Courant Number mean: 0.00671964 max: 0.923851
deltaT = 0.00166667
Time = 0.12

PIMPLE: iteration 1
smoothSolver:  Solving for alpha.water, Initial residual = 0.00318021, Final residual = 1.34045e-09, No Iterations 3
Phase-1 volume fraction = 0.131101  Min(alpha.water) = -5.98885e-13  Max(alpha.water) = 1
MULES: Correcting alpha.water
MULES: Correcting alpha.water
Phase-1 volume fraction = 0.131101  Min(alpha.water) = -9.22981e-12  Max(alpha.water) = 1
DICPCG:  Solving for p_rgh, Initial residual = 0.0245135, Final residual = 0.000580681, No Iterations 1
time step continuity errors : sum local = 0.000292278, global = -3.3721e-10, cumulative = 0.000559188
DICPCG:  Solving for p_rgh, Initial residual = 0.000653957, Final residual = 2.7299e-05, No Iterations 11
time step continuity errors : sum local = 1.34612e-05, global = 1.68026e-06, cumulative = 0.000560868
DICPCG:  Solving for p_rgh, Initial residual = 6.48896e-05, Final residual = 9.55879e-08, No Iterations 42
time step continuity errors : sum local = 4.75001e-08, global = -7.74659e-09, cumulative = 0.00056086
ExecutionTime = 0.29 s  ClockTime = 0 s

Courant Number mean: 0.0728276 max: 1.01749
Interface Courant Number mean: 0.00607242 max: 0.95415
deltaT = 0.00166667
Time = 0.121667

PIMPLE: iteration 1
smoothSolver:  Solving for alpha.water, Initial residual = 0.00319875, Final residual = 1.36154e-09, No Iterations 3
Phase-1 volume fraction = 0.131101  Min(alpha.water) = -4.36012e-13  Max(alpha.water) = 1
MULES: Correcting alpha.water
MULES: Correcting alpha.water
Phase-1 volume fraction = 0.131101  Min(alpha.water) = -5.35385e-12  Max(alpha.water) = 1
DICPCG:  Solving for p_rgh, Initial residual = 0.0235763, Final residual = 0.000629794, No Iterations 1
time step continuity errors : sum local = 0.000316716, global = -3.18236e-08, cumulative = 0.000560828
DICPCG:  Solving for p_rgh, Initial residual = 0.00070899, Final residual = 3.422e-05, No Iterations 10
time step continuity errors : sum local = 1.68909e-05, global = 1.05361e-06, cumulative = 0.000561882
DICPCG:  Solving for p_rgh, Initial residual = 7.7363e-05, Final residual = 7.95928e-08, No Iterations 46
time step continuity errors : sum local = 3.9564e-08, global = -2.25398e-09, cumulative = 0.00056188
ExecutionTime = 0.3 s  ClockTime = 0 s

Courant Number mean: 0.0735422 max: 1.06515
Interface Courant Number mean: 0.00613986 max: 0.979823
deltaT = 0.00166667
Time = 0.123333

PIMPLE: iteration 1
smoothSolver:  Solving for alpha.water, Initial residual = 0.00325043, Final residual = 1.36003e-09, No Iterations 3
Phase-1 volume fraction = 0.131101  Min(alpha.water) = -4.25875e-13  Max(alpha.water) = 1
MULES: Correcting alpha.water
MULES: Correcting alpha.water
Phase-1 volume fraction = 0.131101  Min(alpha.water) = -4.71949e-12  Max(alpha.water) = 1
DICPCG:  Solving for p_rgh, Initial residual = 0.0221823, Final residual = 0.000625707, No Iterations 1
time step continuity errors : sum local = 0.000316617, global = -1.17107e-09, cumulative = 0.000561879
DICPCG:  Solving for p_rgh, Initial residual = 0.000714008, Final residual = 3.52124e-05, No Iterations 10
time step continuity errors : sum local = 1.75163e-05, global = 9.54916e-07, cumulative = 0.000562833
DICPCG:  Solving for p_rgh, Initial residual = 8.13475e-05, Final residual = 9.53809e-08, No Iterations 46
time step continuity errors : sum local = 4.78127e-08, global = -2.68103e-09, cumulative = 0.000562831
ExecutionTime = 0.3 s  ClockTime = 0 s

Courant Number mean: 0.0743296 max: 1.11444
Interface Courant Number mean: 0.0064609 max: 1.08002
deltaT = 0.00166667
Time = 0.125

PIMPLE: iteration 1
smoothSolver:  Solving for alpha.water, Initial residual = 0.00329682, Final residual = 1.37133e-09, No Iterations 3
Phase-1 volume fraction = 0.131101  Min(alpha.water) = -4.13565e-13  Max(alpha.water) = 1
MULES: Correcting alpha.water
MULES: Correcting alpha.water
Phase-1 volume fraction = 0.131101  Min(alpha.water) = -2.86351e-12  Max(alpha.water) = 1
DICPCG:  Solving for p_rgh, Initial residual = 0.0239409, Final residual = 0.000652999, No Iterations 1
time step continuity errors : sum local = 0.000341343, global = -4.1046e-09, cumulative = 0.000562827
DICPCG:  Solving for p_rgh, Initial residual = 0.000750209, Final residual = 3.59565e-05, No Iterations 7
time step continuity errors : sum local = 1.84672e-05, global = 5.92085e-08, cumulative = 0.000562886
DICPCG:  Solving for p_rgh, Initial residual = 7.94076e-05, Final residual = 6.83361e-08, No Iterations 48
time step continuity errors : sum local = 3.53068e-08, global = -3.00185e-09, cumulative = 0.000562883
ExecutionTime = 0.31 s  ClockTime = 0 s

Courant Number mean: 0.0750812 max: 1.16492
Interface Courant Number mean: 0.00641026 max: 1.10955
deltaT = 0.00147059
Time = 0.126471

PIMPLE: iteration 1
smoothSolver:  Solving for alpha.water, Initial residual = 0.00294177, Final residual = 6.77474e-10, No Iterations 3
Phase-1 volume fraction = 0.131101  Min(alpha.water) = -3.98444e-13  Max(alpha.water) = 1
MULES: Correcting alpha.water
MULES: Correcting alpha.water
Phase-1 volume fraction = 0.131101  Min(alpha.water) = -5.3679e-10  Max(alpha.water) = 1
DICPCG:  Solving for p_rgh, Initial residual = 0.0219681, Final residual = 0.000488066, No Iterations 1
time step continuity errors : sum local = 0.000209638, global = -3.63549e-09, cumulative = 0.000562879
DICPCG:  Solving for p_rgh, Initial residual = 0.000567254, Final residual = 2.77922e-05, No Iterations 8
time step continuity errors : sum local = 1.17438e-05, global = 4.54734e-08, cumulative = 0.000562925
DICPCG:  Solving for p_rgh, Initial residual = 6.80003e-05, Final residual = 9.81366e-08, No Iterations 47
time step continuity errors : sum local = 4.17252e-08, global = -1.38922e-09, cumulative = 0.000562923
ExecutionTime = 0.32 s  ClockTime = 0 s

Courant Number mean: 0.0668143 max: 1.05696
Interface Courant Number mean: 0.00553238 max: 0.981845
deltaT = 0.00138408
Time = 0.127855

PIMPLE: iteration 1
smoothSolver:  Solving for alpha.water, Initial residual = 0.00280778, Final residual = 4.7874e-10, No Iterations 3
Phase-1 volume fraction = 0.131101  Min(alpha.water) = -3.80807e-13  Max(alpha.water) = 1
MULES: Correcting alpha.water
MULES: Correcting alpha.water
Phase-1 volume fraction = 0.131101  Min(alpha.water) = -9.43338e-11  Max(alpha.water) = 1
DICPCG:  Solving for p_rgh, Initial residual = 0.0245571, Final residual = 0.000398526, No Iterations 1
time step continuity errors : sum local = 0.000161053, global = 5.01744e-10, cumulative = 0.000562924
DICPCG:  Solving for p_rgh, Initial residual = 0.00048566, Final residual = 2.32359e-05, No Iterations 12
time step continuity errors : sum local = 9.20023e-06, global = 6.3964e-07, cumulative = 0.000563563
DICPCG:  Solving for p_rgh, Initial residual = 6.42598e-05, Final residual = 9.37604e-08, No Iterations 47
time step continuity errors : sum local = 3.74384e-08, global = -1.15554e-09, cumulative = 0.000563562
ExecutionTime = 0.33 s  ClockTime = 0 s

Courant Number mean: 0.0633725 max: 1.01052
Interface Courant Number mean: 0.00546252 max: 0.908914
deltaT = 0.00138408
Time = 0.129239

PIMPLE: iteration 1
smoothSolver:  Solving for alpha.water, Initial residual = 0.00282709, Final residual = 4.88976e-10, No Iterations 3
Phase-1 volume fraction = 0.131101  Min(alpha.water) = -3.59893e-13  Max(alpha.water) = 1
MULES: Correcting alpha.water
MULES: Correcting alpha.water
Phase-1 volume fraction = 0.131101  Min(alpha.water) = -7.73164e-11  Max(alpha.water) = 1
DICPCG:  Solving for p_rgh, Initial residual = 0.022929, Final residual = 0.000438209, No Iterations 1
time step continuity errors : sum local = 0.00017215, global = -5.9194e-09, cumulative = 0.000563556
DICPCG:  Solving for p_rgh, Initial residual = 0.000551722, Final residual = 2.55098e-05, No Iterations 9
time step continuity errors : sum local = 9.84365e-06, global = 1.05376e-07, cumulative = 0.000563662
DICPCG:  Solving for p_rgh, Initial residual = 8.30851e-05, Final residual = 9.87659e-08, No Iterations 48
time step continuity errors : sum local = 3.84219e-08, global = -1.62756e-09, cumulative = 0.00056366
ExecutionTime = 0.33 s  ClockTime = 0 s

Courant Number mean: 0.0638542 max: 0.989391
Interface Courant Number mean: 0.00548874 max: 0.989391
deltaT = 0.00138408
Time = 0.130623

PIMPLE: iteration 1
smoothSolver:  Solving for alpha.water, Initial residual = 0.00288349, Final residual = 4.92447e-10, No Iterations 3
Phase-1 volume fraction = 0.131101  Min(alpha.water) = -3.35605e-13  Max(alpha.water) = 1
MULES: Correcting alpha.water
MULES: Correcting alpha.water
Phase-1 volume fraction = 0.131101  Min(alpha.water) = -5.39559e-13  Max(alpha.water) = 1
DICPCG:  Solving for p_rgh, Initial residual = 0.0228115, Final residual = 0.000465593, No Iterations 1
time step continuity errors : sum local = 0.000180666, global = -1.754e-09, cumulative = 0.000563658
DICPCG:  Solving for p_rgh, Initial residual = 0.000575451, Final residual = 2.7482e-05, No Iterations 8
time step continuity errors : sum local = 1.04629e-05, global = 3.28532e-08, cumulative = 0.000563691
DICPCG:  Solving for p_rgh, Initial residual = 9.6088e-05, Final residual = 6.61507e-08, No Iterations 49
time step continuity errors : sum local = 2.53593e-08, global = -3.81794e-10, cumulative = 0.000563691
ExecutionTime = 0.34 s  ClockTime = 0 s

Courant Number mean: 0.0643367 max: 0.931231
Interface Courant Number mean: 0.00538523 max: 0.931231
deltaT = 0.00149055
Time = 0.132113

PIMPLE: iteration 1
smoothSolver:  Solving for alpha.water, Initial residual = 0.00313281, Final residual = 7.65106e-10, No Iterations 3
Phase-1 volume fraction = 0.131101  Min(alpha.water) = -3.0501e-13  Max(alpha.water) = 1
MULES: Correcting alpha.water
MULES: Correcting alpha.water
Phase-1 volume fraction = 0.131101  Min(alpha.water) = -1.42373e-11  Max(alpha.water) = 1
DICPCG:  Solving for p_rgh, Initial residual = 0.0218126, Final residual = 0.000543677, No Iterations 1
time step continuity errors : sum local = 0.00023691, global = 4.29119e-09, cumulative = 0.000563695
DICPCG:  Solving for p_rgh, Initial residual = 0.00067157, Final residual = 3.18805e-05, No Iterations 12
time step continuity errors : sum local = 1.36475e-05, global = 8.41415e-07, cumulative = 0.000564537
DICPCG:  Solving for p_rgh, Initial residual = 9.65839e-05, Final residual = 9.10795e-08, No Iterations 48
time step continuity errors : sum local = 3.93666e-08, global = -3.36965e-09, cumulative = 0.000564533
ExecutionTime = 0.35 s  ClockTime = 0 s

Courant Number mean: 0.0698942 max: 0.949394
Interface Courant Number mean: 0.00668683 max: 0.949394
deltaT = 0.00162606
Time = 0.133739

PIMPLE: iteration 1
smoothSolver:  Solving for alpha.water, Initial residual = 0.0034411, Final residual = 1.26569e-09, No Iterations 3
Phase-1 volume fraction = 0.131101  Min(alpha.water) = -2.674e-13  Max(alpha.water) = 1
MULES: Correcting alpha.water
MULES: Correcting alpha.water
Phase-1 volume fraction = 0.131101  Min(alpha.water) = -7.25614e-11  Max(alpha.water) = 1
DICPCG:  Solving for p_rgh, Initial residual = 0.0231601, Final residual = 0.000672305, No Iterations 1
time step continuity errors : sum local = 0.000343797, global = -1.13415e-08, cumulative = 0.000564522
DICPCG:  Solving for p_rgh, Initial residual = 0.00082026, Final residual = 3.67398e-05, No Iterations 13
time step continuity errors : sum local = 1.84763e-05, global = 1.36473e-06, cumulative = 0.000565887
DICPCG:  Solving for p_rgh, Initial residual = 0.000135294, Final residual = 9.01477e-08, No Iterations 49
time step continuity errors : sum local = 4.60045e-08, global = -2.32271e-09, cumulative = 0.000565884
ExecutionTime = 0.35 s  ClockTime = 0 s

Courant Number mean: 0.0769962 max: 0.967601
Interface Courant Number mean: 0.00717779 max: 0.967601
deltaT = 0.00162606
Time = 0.135365

PIMPLE: iteration 1
smoothSolver:  Solving for alpha.water, Initial residual = 0.00350755, Final residual = 1.24489e-09, No Iterations 3
Phase-1 volume fraction = 0.131101  Min(alpha.water) = -2.25763e-13  Max(alpha.water) = 1
MULES: Correcting alpha.water
MULES: Correcting alpha.water
Phase-1 volume fraction = 0.131101  Min(alpha.water) = -7.03124e-11  Max(alpha.water) = 1
DICPCG:  Solving for p_rgh, Initial residual = 0.0219698, Final residual = 0.000606245, No Iterations 1
time step continuity errors : sum local = 0.000312092, global = -1.55331e-08, cumulative = 0.000565869
DICPCG:  Solving for p_rgh, Initial residual = 0.00073647, Final residual = 3.05316e-05, No Iterations 13
time step continuity errors : sum local = 1.54606e-05, global = 1.22232e-06, cumulative = 0.000567091
DICPCG:  Solving for p_rgh, Initial residual = 0.000107682, Final residual = 5.72568e-08, No Iterations 48
time step continuity errors : sum local = 2.93983e-08, global = -1.85861e-09, cumulative = 0.000567089
ExecutionTime = 0.36 s  ClockTime = 0 s

Courant Number mean: 0.0777517 max: 0.923306
Interface Courant Number mean: 0.00736435 max: 0.923306
deltaT = 0.00182931
Time = 0.137195

PIMPLE: iteration 1
smoothSolver:  Solving for alpha.water, Initial residual = 0.00395087, Final residual = 2.50547e-09, No Iterations 3
Phase-1 volume fraction = 0.131101  Min(alpha.water) = -1.70105e-13  Max(alpha.water) = 1
MULES: Correcting alpha.water
MULES: Correcting alpha.water
Phase-1 volume fraction = 0.131101  Min(alpha.water) = -6.02924e-11  Max(alpha.water) = 1
DICPCG:  Solving for p_rgh, Initial residual = 0.0219652, Final residual = 0.000647422, No Iterations 1
time step continuity errors : sum local = 0.000416719, global = -6.51933e-09, cumulative = 0.000567083
DICPCG:  Solving for p_rgh, Initial residual = 0.000798141, Final residual = 3.83629e-05, No Iterations 13
time step continuity errors : sum local = 2.42907e-05, global = 2.05215e-06, cumulative = 0.000569135
DICPCG:  Solving for p_rgh, Initial residual = 0.000121169, Final residual = 8.96013e-08, No Iterations 48
time step continuity errors : sum local = 5.76902e-08, global = -5.47433e-09, cumulative = 0.000569129
ExecutionTime = 0.36 s  ClockTime = 0 s

Courant Number mean: 0.0884156 max: 1.00016
Interface Courant Number mean: 0.00867582 max: 1.00016
deltaT = 0.00182931
Time = 0.139024

PIMPLE: iteration 1
smoothSolver:  Solving for alpha.water, Initial residual = 0.00399504, Final residual = 2.5383e-09, No Iterations 3
Phase-1 volume fraction = 0.131101  Min(alpha.water) = -1.56585e-13  Max(alpha.water) = 1
MULES: Correcting alpha.water
MULES: Correcting alpha.water
Phase-1 volume fraction = 0.131101  Min(alpha.water) = -1.57299e-12  Max(alpha.water) = 1
DICPCG:  Solving for p_rgh, Initial residual = 0.0214888, Final residual = 0.000633432, No Iterations 1
time step continuity errors : sum local = 0.000415165, global = -3.4111e-08, cumulative = 0.000569095
DICPCG:  Solving for p_rgh, Initial residual = 0.000780814, Final residual = 2.63947e-05, No Iterations 14
time step continuity errors : sum local = 1.70335e-05, global = 1.72194e-06, cumulative = 0.000570817
DICPCG:  Solving for p_rgh, Initial residual = 0.00010612, Final residual = 8.07527e-08, No Iterations 48
time step continuity errors : sum local = 5.30728e-08, global = -6.22354e-09, cumulative = 0.000570811
ExecutionTime = 0.37 s  ClockTime = 0 s

Courant Number mean: 0.0893381 max: 0.971888
Interface Courant Number mean: 0.0086297 max: 0.971888
deltaT = 0.00182931
Time = 0.140853

PIMPLE: iteration 1
smoothSolver:  Solving for alpha.water, Initial residual = 0.00402135, Final residual = 2.59474e-09, No Iterations 3
Phase-1 volume fraction = 0.131101  Min(alpha.water) = -1.42625e-13  Max(alpha.water) = 1
MULES: Correcting alpha.water
MULES: Correcting alpha.water
Phase-1 volume fraction = 0.131101  Min(alpha.water) = -1.42679e-11  Max(alpha.water) = 1
DICPCG:  Solving for p_rgh, Initial residual = 0.0232007, Final residual = 0.000585537, No Iterations 1
time step continuity errors : sum local = 0.000398437, global = -3.00913e-08, cumulative = 0.000570781
DICPCG:  Solving for p_rgh, Initial residual = 0.000717153, Final residual = 3.4984e-05, No Iterations 13
time step continuity errors : sum local = 2.33801e-05, global = 2.01411e-06, cumulative = 0.000572795
DICPCG:  Solving for p_rgh, Initial residual = 0.000107016, Final residual = 9.81738e-08, No Iterations 48
time step continuity errors : sum local = 6.65777e-08, global = -3.63815e-09, cumulative = 0.000572791
ExecutionTime = 0.38 s  ClockTime = 0 s

Courant Number mean: 0.0901918 max: 0.943706
Interface Courant Number mean: 0.00853967 max: 0.943706
deltaT = 0.00182931
Time = 0.142683

PIMPLE: iteration 1
smoothSolver:  Solving for alpha.water, Initial residual = 0.00412582, Final residual = 2.63075e-09, No Iterations 3
Phase-1 volume fraction = 0.131101  Min(alpha.water) = -1.25764e-13  Max(alpha.water) = 1
MULES: Correcting alpha.water
MULES: Correcting alpha.water
Phase-1 volume fraction = 0.131101  Min(alpha.water) = -9.76216e-12  Max(alpha.water) = 1
DICPCG:  Solving for p_rgh, Initial residual = 0.0217121, Final residual = 0.000557517, No Iterations 1
time step continuity errors : sum local = 0.000387818, global = -2.81199e-08, cumulative = 0.000572763
DICPCG:  Solving for p_rgh, Initial residual = 0.000698804, Final residual = 3.30153e-05, No Iterations 13
time step continuity errors : sum local = 2.25822e-05, global = 1.57223e-06, cumulative = 0.000574335
DICPCG:  Solving for p_rgh, Initial residual = 0.0001103, Final residual = 8.23027e-08, No Iterations 49
time step continuity errors : sum local = 5.73076e-08, global = -6.38227e-10, cumulative = 0.000574335
ExecutionTime = 0.38 s  ClockTime = 0 s

Courant Number mean: 0.0910654 max: 0.919045
Interface Courant Number mean: 0.00966834 max: 0.919045
deltaT = 0.00182931
Time = 0.144512

PIMPLE: iteration 1
smoothSolver:  Solving for alpha.water, Initial residual = 0.00417782, Final residual = 2.62495e-09, No Iterations 3
Phase-1 volume fraction = 0.131101  Min(alpha.water) = -1.07178e-13  Max(alpha.water) = 1
MULES: Correcting alpha.water
MULES: Correcting alpha.water
Phase-1 volume fraction = 0.131101  Min(alpha.water) = -8.53577e-10  Max(alpha.water) = 1
DICPCG:  Solving for p_rgh, Initial residual = 0.0254299, Final residual = 0.000509662, No Iterations 1
time step continuity errors : sum local = 0.000374329, global = -1.60805e-08, cumulative = 0.000574319
DICPCG:  Solving for p_rgh, Initial residual = 0.000640355, Final residual = 2.24389e-05, No Iterations 14
time step continuity errors : sum local = 1.61186e-05, global = 1.50928e-06, cumulative = 0.000575828
DICPCG:  Solving for p_rgh, Initial residual = 9.57294e-05, Final residual = 9.64956e-08, No Iterations 48
time step continuity errors : sum local = 7.03445e-08, global = -1.43404e-09, cumulative = 0.000575827
ExecutionTime = 0.39 s  ClockTime = 0 s

Courant Number mean: 0.092095 max: 0.892493
Interface Courant Number mean: 0.00997375 max: 0.892493
deltaT = 0.00182931
Time = 0.146341

PIMPLE: iteration 1
smoothSolver:  Solving for alpha.water, Initial residual = 0.00421632, Final residual = 2.59875e-09, No Iterations 3
Phase-1 volume fraction = 0.131101  Min(alpha.water) = -9.11218e-14  Max(alpha.water) = 1
MULES: Correcting alpha.water
MULES: Correcting alpha.water
Phase-1 volume fraction = 0.131101  Min(alpha.water) = -4.30187e-09  Max(alpha.water) = 1
DICPCG:  Solving for p_rgh, Initial residual = 0.0226598, Final residual = 0.0005326, No Iterations 1
time step continuity errors : sum local = 0.000383225, global = -2.14671e-08, cumulative = 0.000575805
DICPCG:  Solving for p_rgh, Initial residual = 0.000656895, Final residual = 3.2411e-05, No Iterations 13
time step continuity errors : sum local = 2.28815e-05, global = 1.48075e-06, cumulative = 0.000577286
DICPCG:  Solving for p_rgh, Initial residual = 0.00011087, Final residual = 9.95462e-08, No Iterations 48
time step continuity errors : sum local = 7.11638e-08, global = 3.30689e-09, cumulative = 0.000577289
ExecutionTime = 0.39 s  ClockTime = 0 s

Courant Number mean: 0.0932256 max: 0.864177
Interface Courant Number mean: 0.0100193 max: 0.864177
deltaT = 0.00182931
Time = 0.148171

PIMPLE: iteration 1
smoothSolver:  Solving for alpha.water, Initial residual = 0.0042419, Final residual = 2.62535e-09, No Iterations 3
Phase-1 volume fraction = 0.131101  Min(alpha.water) = -8.02637e-14  Max(alpha.water) = 1
MULES: Correcting alpha.water
MULES: Correcting alpha.water
Phase-1 volume fraction = 0.131101  Min(alpha.water) = -2.79611e-09  Max(alpha.water) = 1
DICPCG:  Solving for p_rgh, Initial residual = 0.0214923, Final residual = 0.000581325, No Iterations 1
time step continuity errors : sum local = 0.000414983, global = -4.27996e-09, cumulative = 0.000577285
DICPCG:  Solving for p_rgh, Initial residual = 0.000710339, Final residual = 3.09646e-05, No Iterations 14
time step continuity errors : sum local = 2.17305e-05, global = 1.47381e-06, cumulative = 0.000578759
DICPCG:  Solving for p_rgh, Initial residual = 0.000115138, Final residual = 7.46965e-08, No Iterations 50
time step continuity errors : sum local = 5.32224e-08, global = -2.39041e-09, cumulative = 0.000578756
ExecutionTime = 0.4 s  ClockTime = 0 s

Courant Number mean: 0.0940582 max: 0.836173
Interface Courant Number mean: 0.00987784 max: 0.836173
deltaT = 0.00182931
Time = 0.15

PIMPLE: iteration 1
smoothSolver:  Solving for alpha.water, Initial residual = 0.00430872, Final residual = 2.65005e-09, No Iterations 3
Phase-1 volume fraction = 0.131101  Min(alpha.water) = -6.77408e-14  Max(alpha.water) = 1
MULES: Correcting alpha.water
MULES: Correcting alpha.water
Phase-1 volume fraction = 0.131101  Min(alpha.water) = -2.06137e-09  Max(alpha.water) = 1
DICPCG:  Solving for p_rgh, Initial residual = 0.0210932, Final residual = 0.000534524, No Iterations 1
time step continuity errors : sum local = 0.000383166, global = -1.88162e-08, cumulative = 0.000578737
DICPCG:  Solving for p_rgh, Initial residual = 0.000674264, Final residual = 3.02993e-05, No Iterations 10
time step continuity errors : sum local = 2.13423e-05, global = 3.04065e-07, cumulative = 0.000579042
DICPCG:  Solving for p_rgh, Initial residual = 0.000102462, Final residual = 9.12945e-08, No Iterations 50
time step continuity errors : sum local = 6.50129e-08, global = 2.19747e-09, cumulative = 0.000579044
ExecutionTime = 0.41 s  ClockTime = 0 s

Courant Number mean: 0.0948989 max: 0.808354
Interface Courant Number mean: 0.0102557 max: 0.808354
deltaT = 0.00208333
Time = 0.152083

PIMPLE: iteration 1
smoothSolver:  Solving for alpha.water, Initial residual = 0.00510286, Final residual = 5.63766e-09, No Iterations 3
Phase-1 volume fraction = 0.131101  Min(alpha.water) = -5.75215e-14  Max(alpha.water) = 1
MULES: Correcting alpha.water
MULES: Correcting alpha.water
Phase-1 volume fraction = 0.131101  Min(alpha.water) = -1.51934e-09  Max(alpha.water) = 1
DICPCG:  Solving for p_rgh, Initial residual = 0.0204354, Final residual = 0.000587853, No Iterations 1
time step continuity errors : sum local = 0.000538517, global = -4.9838e-10, cumulative = 0.000579043
DICPCG:  Solving for p_rgh, Initial residual = 0.000767969, Final residual = 3.21449e-05, No Iterations 10
time step continuity errors : sum local = 2.89269e-05, global = 4.00328e-07, cumulative = 0.000579444
DICPCG:  Solving for p_rgh, Initial residual = 0.000125981, Final residual = 8.64907e-08, No Iterations 50
time step continuity errors : sum local = 7.86045e-08, global = 6.7382e-09, cumulative = 0.00057945
ExecutionTime = 0.42 s  ClockTime = 0 s

Courant Number mean: 0.109542 max: 0.885628
Interface Courant Number mean: 0.0122368 max: 0.718617
deltaT = 0.00229167
Time = 0.154375

PIMPLE: iteration 1
smoothSolver:  Solving for alpha.water, Initial residual = 0.00588797, Final residual = 9.9483e-09, No Iterations 3
Phase-1 volume fraction = 0.131101  Min(alpha.water) = -5.34034e-14  Max(alpha.water) = 1
MULES: Correcting alpha.water
MULES: Correcting alpha.water
Phase-1 volume fraction = 0.131101  Min(alpha.water) = -4.05782e-10  Max(alpha.water) = 1
DICPCG:  Solving for p_rgh, Initial residual = 0.020352, Final residual = 0.000645318, No Iterations 1
time step continuity errors : sum local = 0.000709322, global = -9.38807e-09, cumulative = 0.000579441
DICPCG:  Solving for p_rgh, Initial residual = 0.000806485, Final residual = 3.70501e-05, No Iterations 8
time step continuity errors : sum local = 3.99986e-05, global = -2.72496e-08, cumulative = 0.000579414
DICPCG:  Solving for p_rgh, Initial residual = 0.000147026, Final residual = 7.19923e-08, No Iterations 50
time step continuity errors : sum local = 7.82381e-08, global = -5.07567e-09, cumulative = 0.000579409
ExecutionTime = 0.43 s  ClockTime = 0 s

Courant Number mean: 0.121999 max: 0.933782
Interface Courant Number mean: 0.0134811 max: 0.788596
deltaT = 0.00257813
Time = 0.156953

PIMPLE: iteration 1
smoothSolver:  Solving for alpha.water, Initial residual = 0.00674114, Final residual = 3.59799e-10, No Iterations 4
Phase-1 volume fraction = 0.131101  Min(alpha.water) = -4.58117e-14  Max(alpha.water) = 1
MULES: Correcting alpha.water
MULES: Correcting alpha.water
Phase-1 volume fraction = 0.131101  Min(alpha.water) = -1.98453e-09  Max(alpha.water) = 1
DICPCG:  Solving for p_rgh, Initial residual = 0.0208751, Final residual = 0.000721344, No Iterations 1
time step continuity errors : sum local = 0.00100168, global = -2.76256e-08, cumulative = 0.000579381
DICPCG:  Solving for p_rgh, Initial residual = 0.000887921, Final residual = 4.04409e-05, No Iterations 8
time step continuity errors : sum local = 5.5164e-05, global = -7.18456e-08, cumulative = 0.000579309
DICPCG:  Solving for p_rgh, Initial residual = 0.000172484, Final residual = 8.99809e-08, No Iterations 50
time step continuity errors : sum local = 1.23647e-07, global = -1.29023e-08, cumulative = 0.000579296
ExecutionTime = 0.43 s  ClockTime = 0 s

Courant Number mean: 0.138888 max: 1.00383
Interface Courant Number mean: 0.0161852 max: 0.880603
deltaT = 0.00257812
Time = 0.159531

PIMPLE: iteration 1
smoothSolver:  Solving for alpha.water, Initial residual = 0.00692312, Final residual = 3.66588e-10, No Iterations 4
Phase-1 volume fraction = 0.131101  Min(alpha.water) = -3.68228e-14  Max(alpha.water) = 1
MULES: Correcting alpha.water
MULES: Correcting alpha.water
Phase-1 volume fraction = 0.131101  Min(alpha.water) = -9.42544e-10  Max(alpha.water) = 1
DICPCG:  Solving for p_rgh, Initial residual = 0.0213296, Final residual = 0.000654024, No Iterations 1
time step continuity errors : sum local = 0.000933135, global = -1.542e-08, cumulative = 0.000579281
DICPCG:  Solving for p_rgh, Initial residual = 0.000787091, Final residual = 3.62005e-05, No Iterations 10
time step continuity errors : sum local = 5.07516e-05, global = 3.90278e-07, cumulative = 0.000579671
DICPCG:  Solving for p_rgh, Initial residual = 0.000153387, Final residual = 9.45291e-08, No Iterations 50
time step continuity errors : sum local = 1.3341e-07, global = 3.17133e-09, cumulative = 0.000579674
ExecutionTime = 0.44 s  ClockTime = 0 s

Courant Number mean: 0.140139 max: 0.960609
Interface Courant Number mean: 0.0161576 max: 0.879439
deltaT = 0.00257813
Time = 0.162109

PIMPLE: iteration 1
smoothSolver:  Solving for alpha.water, Initial residual = 0.00682178, Final residual = 3.69037e-10, No Iterations 4
Phase-1 volume fraction = 0.131101  Min(alpha.water) = -2.66904e-14  Max(alpha.water) = 1
MULES: Correcting alpha.water
MULES: Correcting alpha.water
Phase-1 volume fraction = 0.131101  Min(alpha.water) = -1.19255e-08  Max(alpha.water) = 1
DICPCG:  Solving for p_rgh, Initial residual = 0.024584, Final residual = 0.000609319, No Iterations 1
time step continuity errors : sum local = 0.00089602, global = 2.91961e-08, cumulative = 0.000579703
DICPCG:  Solving for p_rgh, Initial residual = 0.000721294, Final residual = 3.09108e-05, No Iterations 9
time step continuity errors : sum local = 4.44674e-05, global = 1.13117e-07, cumulative = 0.000579817
DICPCG:  Solving for p_rgh, Initial residual = 0.000142173, Final residual = 7.30503e-08, No Iterations 54
time step continuity errors : sum local = 1.05764e-07, global = 6.62798e-09, cumulative = 0.000579823
ExecutionTime = 0.44 s  ClockTime = 0 s

Courant Number mean: 0.140889 max: 0.92121
Interface Courant Number mean: 0.0173904 max: 0.860376
deltaT = 0.00257813
Time = 0.164688

PIMPLE: iteration 1
smoothSolver:  Solving for alpha.water, Initial residual = 0.00689131, Final residual = 3.67011e-10, No Iterations 4
Phase-1 volume fraction = 0.131101  Min(alpha.water) = -1.94749e-14  Max(alpha.water) = 1
MULES: Correcting alpha.water
MULES: Correcting alpha.water
Phase-1 volume fraction = 0.131101  Min(alpha.water) = -9.03534e-09  Max(alpha.water) = 1
DICPCG:  Solving for p_rgh, Initial residual = 0.0229283, Final residual = 0.000617816, No Iterations 1
time step continuity errors : sum local = 0.0009029, global = 1.98658e-08, cumulative = 0.000579843
DICPCG:  Solving for p_rgh, Initial residual = 0.000728904, Final residual = 3.36986e-05, No Iterations 7
time step continuity errors : sum local = 4.82481e-05, global = -1.08928e-07, cumulative = 0.000579734
DICPCG:  Solving for p_rgh, Initial residual = 0.000149105, Final residual = 9.36509e-08, No Iterations 50
time step continuity errors : sum local = 1.34374e-07, global = -5.41541e-09, cumulative = 0.000579729
ExecutionTime = 0.45 s  ClockTime = 0 s

Courant Number mean: 0.141763 max: 0.885137
Interface Courant Number mean: 0.0168988 max: 0.851392
deltaT = 0.00257813
Time = 0.167266

PIMPLE: iteration 1
smoothSolver:  Solving for alpha.water, Initial residual = 0.00699663, Final residual = 3.63739e-10, No Iterations 4
Phase-1 volume fraction = 0.131101  Min(alpha.water) = -1.81706e-14  Max(alpha.water) = 1
MULES: Correcting alpha.water
MULES: Correcting alpha.water
Phase-1 volume fraction = 0.131101  Min(alpha.water) = -2.19517e-08  Max(alpha.water) = 1
DICPCG:  Solving for p_rgh, Initial residual = 0.021259, Final residual = 0.000632558, No Iterations 1
time step continuity errors : sum local = 0.000906294, global = 4.44695e-09, cumulative = 0.000579733
DICPCG:  Solving for p_rgh, Initial residual = 0.000745892, Final residual = 3.33761e-05, No Iterations 7
time step continuity errors : sum local = 4.6933e-05, global = -1.08228e-07, cumulative = 0.000579625
DICPCG:  Solving for p_rgh, Initial residual = 0.000153663, Final residual = 7.29492e-08, No Iterations 51
time step continuity errors : sum local = 1.02594e-07, global = 4.881e-09, cumulative = 0.00057963
ExecutionTime = 0.46 s  ClockTime = 0 s

Courant Number mean: 0.142472 max: 0.852636
Interface Courant Number mean: 0.017715 max: 0.839149
deltaT = 0.00257812
Time = 0.169844

PIMPLE: iteration 1
smoothSolver:  Solving for alpha.water, Initial residual = 0.00715112, Final residual = 3.49519e-10, No Iterations 4
Phase-1 volume fraction = 0.131101  Min(alpha.water) = -1.69258e-14  Max(alpha.water) = 1
MULES: Correcting alpha.water
MULES: Correcting alpha.water
Phase-1 volume fraction = 0.131101  Min(alpha.water) = -1.26926e-08  Max(alpha.water) = 1
DICPCG:  Solving for p_rgh, Initial residual = 0.0197678, Final residual = 0.00069316, No Iterations 1
time step continuity errors : sum local = 0.000979432, global = 3.00137e-08, cumulative = 0.00057966
DICPCG:  Solving for p_rgh, Initial residual = 0.000817247, Final residual = 3.96333e-05, No Iterations 6
time step continuity errors : sum local = 5.50865e-05, global = -3.8201e-08, cumulative = 0.000579622
DICPCG:  Solving for p_rgh, Initial residual = 0.000167614, Final residual = 6.6054e-08, No Iterations 51
time step continuity errors : sum local = 9.16616e-08, global = -1.85082e-09, cumulative = 0.00057962
ExecutionTime = 0.46 s  ClockTime = 0 s

Courant Number mean: 0.143048 max: 0.829038
Interface Courant Number mean: 0.0181576 max: 0.829038
deltaT = 0.00257813
Time = 0.172422

PIMPLE: iteration 1
smoothSolver:  Solving for alpha.water, Initial residual = 0.00733289, Final residual = 3.2885e-10, No Iterations 4
Phase-1 volume fraction = 0.131101  Min(alpha.water) = -1.57378e-14  Max(alpha.water) = 1
MULES: Correcting alpha.water
MULES: Correcting alpha.water
Phase-1 volume fraction = 0.131101  Min(alpha.water) = -8.8085e-09  Max(alpha.water) = 1
DICPCG:  Solving for p_rgh, Initial residual = 0.0191537, Final residual = 0.000726178, No Iterations 1
time step continuity errors : sum local = 0.00101846, global = 1.76829e-08, cumulative = 0.000579637
DICPCG:  Solving for p_rgh, Initial residual = 0.000834677, Final residual = 4.01199e-05, No Iterations 7
time step continuity errors : sum local = 5.54126e-05, global = -6.42839e-08, cumulative = 0.000579573
DICPCG:  Solving for p_rgh, Initial residual = 0.000177161, Final residual = 9.27419e-08, No Iterations 53
time step continuity errors : sum local = 1.27811e-07, global = -2.26775e-09, cumulative = 0.000579571
ExecutionTime = 0.47 s  ClockTime = 0 s

Courant Number mean: 0.143191 max: 0.821751
Interface Courant Number mean: 0.0194725 max: 0.821751
deltaT = 0.00257813
Time = 0.175

PIMPLE: iteration 1
smoothSolver:  Solving for alpha.water, Initial residual = 0.00750156, Final residual = 3.07191e-10, No Iterations 4
Phase-1 volume fraction = 0.131101  Min(alpha.water) = -1.46035e-14  Max(alpha.water) = 1
MULES: Correcting alpha.water
MULES: Correcting alpha.water
Phase-1 volume fraction = 0.131101  Min(alpha.water) = -2.00912e-07  Max(alpha.water) = 1
DICPCG:  Solving for p_rgh, Initial residual = 0.0178901, Final residual = 0.000739144, No Iterations 1
time step continuity errors : sum local = 0.0010353, global = 1.9131e-08, cumulative = 0.00057959
DICPCG:  Solving for p_rgh, Initial residual = 0.000873354, Final residual = 4.10695e-05, No Iterations 10
time step continuity errors : sum local = 5.67405e-05, global = 2.17701e-07, cumulative = 0.000579808
DICPCG:  Solving for p_rgh, Initial residual = 0.000184424, Final residual = 9.21422e-08, No Iterations 51
time step continuity errors : sum local = 1.26408e-07, global = 5.9773e-09, cumulative = 0.000579814
ExecutionTime = 0.48 s  ClockTime = 0 s

Courant Number mean: 0.143085 max: 0.824029
Interface Courant Number mean: 0.019345 max: 0.824029
deltaT = 0.00277778
Time = 0.177778

PIMPLE: iteration 1
smoothSolver:  Solving for alpha.water, Initial residual = 0.00803493, Final residual = 4.8649e-10, No Iterations 4
Phase-1 volume fraction = 0.131101  Min(alpha.water) = -1.3431e-14  Max(alpha.water) = 1
MULES: Correcting alpha.water
MULES: Correcting alpha.water
Phase-1 volume fraction = 0.131101  Min(alpha.water) = -3.45474e-05  Max(alpha.water) = 1
DICPCG:  Solving for p_rgh, Initial residual = 0.0206602, Final residual = 0.000755924, No Iterations 1
time step continuity errors : sum local = 0.00124031, global = 7.25059e-08, cumulative = 0.000579886
DICPCG:  Solving for p_rgh, Initial residual = 0.00090495, Final residual = 4.30695e-05, No Iterations 10
time step continuity errors : sum local = 6.95163e-05, global = 2.78869e-08, cumulative = 0.000579914
DICPCG:  Solving for p_rgh, Initial residual = 0.000199016, Final residual = 8.25586e-08, No Iterations 51
time step continuity errors : sum local = 1.32179e-07, global = -2.44001e-09, cumulative = 0.000579912
ExecutionTime = 0.49 s  ClockTime = 0 s

Courant Number mean: 0.153712 max: 0.879951
Interface Courant Number mean: 0.0206568 max: 0.879951
deltaT = 0.0031746
Time = 0.180952

PIMPLE: iteration 1
smoothSolver:  Solving for alpha.water, Initial residual = 0.0093045, Final residual = 1.14484e-09, No Iterations 4
Phase-1 volume fraction = 0.131101  Min(alpha.water) = -1.20912e-14  Max(alpha.water) = 1
MULES: Correcting alpha.water
MULES: Correcting alpha.water
Phase-1 volume fraction = 0.131101  Min(alpha.water) = -8.38235e-07  Max(alpha.water) = 1
DICPCG:  Solving for p_rgh, Initial residual = 0.0230959, Final residual = 0.000802604, No Iterations 1
time step continuity errors : sum local = 0.00169379, global = 7.50233e-08, cumulative = 0.000579987
DICPCG:  Solving for p_rgh, Initial residual = 0.000953338, Final residual = 3.37944e-05, No Iterations 12
time step continuity errors : sum local = 6.98803e-05, global = -6.06434e-07, cumulative = 0.00057938
DICPCG:  Solving for p_rgh, Initial residual = 0.000221226, Final residual = 8.20992e-08, No Iterations 57
time step continuity errors : sum local = 1.67533e-07, global = 2.5562e-09, cumulative = 0.000579383
ExecutionTime = 0.49 s  ClockTime = 0 s

Courant Number mean: 0.175578 max: 0.987457
Interface Courant Number mean: 0.0243401 max: 0.987457
deltaT = 0.0031746
Time = 0.184127

PIMPLE: iteration 1
smoothSolver:  Solving for alpha.water, Initial residual = 0.00926191, Final residual = 9.923e-10, No Iterations 4
Phase-1 volume fraction = 0.131101  Min(alpha.water) = -1.18127e-14  Max(alpha.water) = 1
MULES: Correcting alpha.water
MULES: Correcting alpha.water
Phase-1 volume fraction = 0.131101  Min(alpha.water) = -9.2763e-07  Max(alpha.water) = 1
DICPCG:  Solving for p_rgh, Initial residual = 0.0224972, Final residual = 0.000937871, No Iterations 1
[...]
ExecutionTime = 3.41 s  ClockTime = 3 s

Courant Number mean: 0.160279 max: 0.9757
Interface Courant Number mean: 0.0301178 max: 0.506548
deltaT = 0.0025
Time = 0.9575

PIMPLE: iteration 1
smoothSolver:  Solving for alpha.water, Initial residual = 0.00568002, Final residual = 4.69227e-10, No Iterations 4
Phase-1 volume fraction = 0.128169  Min(alpha.water) = -2.23679e-14  Max(alpha.water) = 1
MULES: Correcting alpha.water
MULES: Correcting alpha.water
Phase-1 volume fraction = 0.128169  Min(alpha.water) = -1.773e-07  Max(alpha.water) = 1
DICPCG:  Solving for p_rgh, Initial residual = 0.0160084, Final residual = 0.000300861, No Iterations 2
time step continuity errors : sum local = 0.000256902, global = 6.72344e-08, cumulative = 0.00432224
DICPCG:  Solving for p_rgh, Initial residual = 0.000408439, Final residual = 1.74321e-05, No Iterations 8
time step continuity errors : sum local = 1.48165e-05, global = -2.20396e-07, cumulative = 0.00432202
DICPCG:  Solving for p_rgh, Initial residual = 7.42914e-05, Final residual = 7.13015e-08, No Iterations 44
time step continuity errors : sum local = 6.06555e-08, global = -3.22731e-09, cumulative = 0.00432202
ExecutionTime = 3.42 s  ClockTime = 3 s

Courant Number mean: 0.159712 max: 0.978087
Interface Courant Number mean: 0.029687 max: 0.509498
deltaT = 0.0025
Time = 0.96

PIMPLE: iteration 1
smoothSolver:  Solving for alpha.water, Initial residual = 0.00565802, Final residual = 4.63964e-10, No Iterations 4
Phase-1 volume fraction = 0.128169  Min(alpha.water) = -2.18682e-14  Max(alpha.water) = 1
MULES: Correcting alpha.water
MULES: Correcting alpha.water
Phase-1 volume fraction = 0.128169  Min(alpha.water) = -2.2177e-07  Max(alpha.water) = 1
DICPCG:  Solving for p_rgh, Initial residual = 0.0166735, Final residual = 0.00028967, No Iterations 2
time step continuity errors : sum local = 0.000247315, global = 7.16761e-08, cumulative = 0.00432209
DICPCG:  Solving for p_rgh, Initial residual = 0.000391763, Final residual = 1.77975e-05, No Iterations 8
time step continuity errors : sum local = 1.5129e-05, global = -3.79689e-07, cumulative = 0.00432171
DICPCG:  Solving for p_rgh, Initial residual = 7.1669e-05, Final residual = 9.58784e-08, No Iterations 38
time step continuity errors : sum local = 8.15177e-08, global = 1.55133e-08, cumulative = 0.00432172
ExecutionTime = 3.42 s  ClockTime = 3 s

Courant Number mean: 0.159113 max: 0.975922
Interface Courant Number mean: 0.0295395 max: 0.507125
deltaT = 0.0025
Time = 0.9625

PIMPLE: iteration 1
smoothSolver:  Solving for alpha.water, Initial residual = 0.00565548, Final residual = 4.64294e-10, No Iterations 4
Phase-1 volume fraction = 0.128169  Min(alpha.water) = -2.13751e-14  Max(alpha.water) = 1
MULES: Correcting alpha.water
MULES: Correcting alpha.water
Phase-1 volume fraction = 0.128169  Min(alpha.water) = -6.15717e-07  Max(alpha.water) = 1
DICPCG:  Solving for p_rgh, Initial residual = 0.0173817, Final residual = 0.000308311, No Iterations 2
time step continuity errors : sum local = 0.000263955, global = 1.10046e-07, cumulative = 0.00432183
DICPCG:  Solving for p_rgh, Initial residual = 0.000407865, Final residual = 1.69927e-05, No Iterations 9
time step continuity errors : sum local = 1.45003e-05, global = -3.87803e-07, cumulative = 0.00432145
DICPCG:  Solving for p_rgh, Initial residual = 7.11118e-05, Final residual = 9.7894e-08, No Iterations 39
time step continuity errors : sum local = 8.35065e-08, global = 1.07987e-08, cumulative = 0.00432146
ExecutionTime = 3.43 s  ClockTime = 3 s

Courant Number mean: 0.158587 max: 0.968369
Interface Courant Number mean: 0.0285427 max: 0.501648
deltaT = 0.0025
Time = 0.965

PIMPLE: iteration 1
smoothSolver:  Solving for alpha.water, Initial residual = 0.00558649, Final residual = 4.62487e-10, No Iterations 4
Phase-1 volume fraction = 0.128169  Min(alpha.water) = -2.08886e-14  Max(alpha.water) = 1
MULES: Correcting alpha.water
MULES: Correcting alpha.water
Phase-1 volume fraction = 0.128169  Min(alpha.water) = -1.24254e-10  Max(alpha.water) = 1
DICPCG:  Solving for p_rgh, Initial residual = 0.0175158, Final residual = 0.000325706, No Iterations 2
time step continuity errors : sum local = 0.00027928, global = 8.16068e-08, cumulative = 0.00432154
DICPCG:  Solving for p_rgh, Initial residual = 0.00042409, Final residual = 1.82796e-05, No Iterations 11
time step continuity errors : sum local = 1.56073e-05, global = 1.17578e-07, cumulative = 0.00432166
DICPCG:  Solving for p_rgh, Initial residual = 7.50435e-05, Final residual = 9.97212e-08, No Iterations 39
time step continuity errors : sum local = 8.50106e-08, global = -4.63499e-09, cumulative = 0.00432165
ExecutionTime = 3.43 s  ClockTime = 3 s

Courant Number mean: 0.158133 max: 0.956303
Interface Courant Number mean: 0.0285518 max: 0.494963
deltaT = 0.0025
Time = 0.9675

PIMPLE: iteration 1
smoothSolver:  Solving for alpha.water, Initial residual = 0.00551798, Final residual = 4.63198e-10, No Iterations 4
Phase-1 volume fraction = 0.128169  Min(alpha.water) = -2.04088e-14  Max(alpha.water) = 1
MULES: Correcting alpha.water
MULES: Correcting alpha.water
Phase-1 volume fraction = 0.128169  Min(alpha.water) = -7.5959e-10  Max(alpha.water) = 1
DICPCG:  Solving for p_rgh, Initial residual = 0.0193618, Final residual = 0.000346179, No Iterations 2
time step continuity errors : sum local = 0.000299396, global = -3.70531e-09, cumulative = 0.00432165
DICPCG:  Solving for p_rgh, Initial residual = 0.000448101, Final residual = 1.9823e-05, No Iterations 9
time step continuity errors : sum local = 1.70507e-05, global = -6.65117e-07, cumulative = 0.00432098
DICPCG:  Solving for p_rgh, Initial residual = 7.56625e-05, Final residual = 9.41701e-08, No Iterations 31
time step continuity errors : sum local = 8.09684e-08, global = 1.16238e-08, cumulative = 0.004321
ExecutionTime = 3.44 s  ClockTime = 3 s

Courant Number mean: 0.157699 max: 0.939619
Interface Courant Number mean: 0.0280631 max: 0.506607
deltaT = 0.0025
Time = 0.97

PIMPLE: iteration 1
smoothSolver:  Solving for alpha.water, Initial residual = 0.00551315, Final residual = 4.63282e-10, No Iterations 4
Phase-1 volume fraction = 0.128169  Min(alpha.water) = -1.99361e-14  Max(alpha.water) = 1
MULES: Correcting alpha.water
MULES: Correcting alpha.water
Phase-1 volume fraction = 0.128169  Min(alpha.water) = -1.21178e-09  Max(alpha.water) = 1
DICPCG:  Solving for p_rgh, Initial residual = 0.0194704, Final residual = 0.000360181, No Iterations 2
time step continuity errors : sum local = 0.00030994, global = 9.79485e-08, cumulative = 0.00432109
DICPCG:  Solving for p_rgh, Initial residual = 0.000469948, Final residual = 1.85916e-05, No Iterations 9
time step continuity errors : sum local = 1.59304e-05, global = -7.20349e-07, cumulative = 0.00432037
DICPCG:  Solving for p_rgh, Initial residual = 7.91573e-05, Final residual = 9.36787e-08, No Iterations 31
time step continuity errors : sum local = 8.0295e-08, global = -2.52815e-08, cumulative = 0.00432035
ExecutionTime = 3.45 s  ClockTime = 3 s

Courant Number mean: 0.157363 max: 0.924664
Interface Courant Number mean: 0.027161 max: 0.51092
deltaT = 0.0025
Time = 0.9725

PIMPLE: iteration 1
smoothSolver:  Solving for alpha.water, Initial residual = 0.00552938, Final residual = 4.77251e-10, No Iterations 4
Phase-1 volume fraction = 0.128169  Min(alpha.water) = -1.94702e-14  Max(alpha.water) = 1
MULES: Correcting alpha.water
MULES: Correcting alpha.water
Phase-1 volume fraction = 0.128169  Min(alpha.water) = -2.17799e-06  Max(alpha.water) = 1
DICPCG:  Solving for p_rgh, Initial residual = 0.0192409, Final residual = 0.000356099, No Iterations 2
time step continuity errors : sum local = 0.000306434, global = 1.73741e-08, cumulative = 0.00432037
DICPCG:  Solving for p_rgh, Initial residual = 0.000466381, Final residual = 2.33075e-05, No Iterations 8
time step continuity errors : sum local = 1.9999e-05, global = -5.7933e-07, cumulative = 0.00431979
DICPCG:  Solving for p_rgh, Initial residual = 8.54433e-05, Final residual = 9.35749e-08, No Iterations 42
time step continuity errors : sum local = 8.02351e-08, global = 8.84638e-09, cumulative = 0.00431979
ExecutionTime = 3.45 s  ClockTime = 3 s

Courant Number mean: 0.157096 max: 0.923664
Interface Courant Number mean: 0.0270854 max: 0.507554
deltaT = 0.0025
Time = 0.975

PIMPLE: iteration 1
smoothSolver:  Solving for alpha.water, Initial residual = 0.00555708, Final residual = 4.77804e-10, No Iterations 4
Phase-1 volume fraction = 0.128169  Min(alpha.water) = -1.90113e-14  Max(alpha.water) = 1
MULES: Correcting alpha.water
MULES: Correcting alpha.water
Phase-1 volume fraction = 0.128169  Min(alpha.water) = -4.67548e-06  Max(alpha.water) = 1
DICPCG:  Solving for p_rgh, Initial residual = 0.0183338, Final residual = 0.000347408, No Iterations 2
time step continuity errors : sum local = 0.000299326, global = 1.09443e-07, cumulative = 0.0043199
DICPCG:  Solving for p_rgh, Initial residual = 0.000453956, Final residual = 1.74937e-05, No Iterations 10
time step continuity errors : sum local = 1.50106e-05, global = -3.35947e-08, cumulative = 0.00431987
DICPCG:  Solving for p_rgh, Initial residual = 8.24081e-05, Final residual = 9.15418e-08, No Iterations 43
time step continuity errors : sum local = 7.83963e-08, global = 7.15105e-09, cumulative = 0.00431988
ExecutionTime = 3.47 s  ClockTime = 3 s

Courant Number mean: 0.156957 max: 0.918118
Interface Courant Number mean: 0.0269996 max: 0.50229
deltaT = 0.00277778
Time = 0.977778

PIMPLE: iteration 1
smoothSolver:  Solving for alpha.water, Initial residual = 0.00619211, Final residual = 9.59805e-10, No Iterations 4
Phase-1 volume fraction = 0.128169  Min(alpha.water) = -1.85096e-14  Max(alpha.water) = 1
MULES: Correcting alpha.water
MULES: Correcting alpha.water
Phase-1 volume fraction = 0.128169  Min(alpha.water) = -4.15876e-06  Max(alpha.water) = 1
DICPCG:  Solving for p_rgh, Initial residual = 0.0197849, Final residual = 0.000426954, No Iterations 2
time step continuity errors : sum local = 0.000438636, global = 3.58355e-08, cumulative = 0.00431991
DICPCG:  Solving for p_rgh, Initial residual = 0.000540225, Final residual = 2.26358e-05, No Iterations 10
time step continuity errors : sum local = 2.31474e-05, global = -1.38927e-06, cumulative = 0.00431852
DICPCG:  Solving for p_rgh, Initial residual = 0.000102805, Final residual = 7.77368e-08, No Iterations 44
time step continuity errors : sum local = 7.95239e-08, global = 4.44772e-09, cumulative = 0.00431853
ExecutionTime = 3.47 s  ClockTime = 3 s

Courant Number mean: 0.17421 max: 1.00789
Interface Courant Number mean: 0.0297386 max: 0.558362
deltaT = 0.00277778
Time = 0.980556

PIMPLE: iteration 1
smoothSolver:  Solving for alpha.water, Initial residual = 0.00613345, Final residual = 9.19401e-10, No Iterations 4
Phase-1 volume fraction = 0.128169  Min(alpha.water) = -1.80164e-14  Max(alpha.water) = 1
MULES: Correcting alpha.water
MULES: Correcting alpha.water
Phase-1 volume fraction = 0.128169  Min(alpha.water) = -4.3906e-06  Max(alpha.water) = 1
DICPCG:  Solving for p_rgh, Initial residual = 0.0194559, Final residual = 0.000404631, No Iterations 2
time step continuity errors : sum local = 0.000412392, global = 8.70453e-08, cumulative = 0.00431862
DICPCG:  Solving for p_rgh, Initial residual = 0.000514686, Final residual = 2.00285e-05, No Iterations 10
time step continuity errors : sum local = 2.03111e-05, global = -1.43335e-06, cumulative = 0.00431718
DICPCG:  Solving for p_rgh, Initial residual = 9.44253e-05, Final residual = 9.87629e-08, No Iterations 43
time step continuity errors : sum local = 1.00202e-07, global = 2.14953e-10, cumulative = 0.00431718
ExecutionTime = 3.48 s  ClockTime = 3 s

Courant Number mean: 0.173886 max: 0.990948
Interface Courant Number mean: 0.0296311 max: 0.554686
deltaT = 0.00277778
Time = 0.983333

PIMPLE: iteration 1
smoothSolver:  Solving for alpha.water, Initial residual = 0.00609712, Final residual = 8.74302e-10, No Iterations 4
Phase-1 volume fraction = 0.128169  Min(alpha.water) = -1.75318e-14  Max(alpha.water) = 1
MULES: Correcting alpha.water
MULES: Correcting alpha.water
Phase-1 volume fraction = 0.128169  Min(alpha.water) = -4.98902e-06  Max(alpha.water) = 1
DICPCG:  Solving for p_rgh, Initial residual = 0.0188154, Final residual = 0.000423138, No Iterations 2
time step continuity errors : sum local = 0.000424089, global = 8.82807e-08, cumulative = 0.00431727
DICPCG:  Solving for p_rgh, Initial residual = 0.000534344, Final residual = 2.66577e-05, No Iterations 7
time step continuity errors : sum local = 2.66479e-05, global = -7.154e-07, cumulative = 0.00431656
DICPCG:  Solving for p_rgh, Initial residual = 9.7804e-05, Final residual = 9.1083e-08, No Iterations 44
time step continuity errors : sum local = 9.10316e-08, global = 1.3832e-08, cumulative = 0.00431657
ExecutionTime = 3.49 s  ClockTime = 3 s

Courant Number mean: 0.173648 max: 0.97072
Interface Courant Number mean: 0.0292192 max: 0.600134
deltaT = 0.00277778
Time = 0.986111

PIMPLE: iteration 1
smoothSolver:  Solving for alpha.water, Initial residual = 0.00606008, Final residual = 8.11788e-10, No Iterations 4
Phase-1 volume fraction = 0.128169  Min(alpha.water) = -1.70559e-14  Max(alpha.water) = 1
MULES: Correcting alpha.water
MULES: Correcting alpha.water
Phase-1 volume fraction = 0.128169  Min(alpha.water) = -5.79931e-06  Max(alpha.water) = 1
DICPCG:  Solving for p_rgh, Initial residual = 0.0172644, Final residual = 0.00046318, No Iterations 2
time step continuity errors : sum local = 0.000456306, global = 1.00168e-07, cumulative = 0.00431667
DICPCG:  Solving for p_rgh, Initial residual = 0.000586365, Final residual = 2.11629e-05, No Iterations 11
time step continuity errors : sum local = 2.07962e-05, global = 7.61283e-07, cumulative = 0.00431743
DICPCG:  Solving for p_rgh, Initial residual = 9.89793e-05, Final residual = 7.63642e-08, No Iterations 44
time step continuity errors : sum local = 7.49792e-08, global = 1.19036e-10, cumulative = 0.00431743
ExecutionTime = 3.49 s  ClockTime = 3 s

Courant Number mean: 0.173487 max: 0.959903
Interface Courant Number mean: 0.0283352 max: 0.632874
deltaT = 0.00277778
Time = 0.988889

PIMPLE: iteration 1
smoothSolver:  Solving for alpha.water, Initial residual = 0.00610797, Final residual = 7.71947e-10, No Iterations 4
Phase-1 volume fraction = 0.128169  Min(alpha.water) = -1.65885e-14  Max(alpha.water) = 1
MULES: Correcting alpha.water
MULES: Correcting alpha.water
Phase-1 volume fraction = 0.128169  Min(alpha.water) = -8.34005e-06  Max(alpha.water) = 1
DICPCG:  Solving for p_rgh, Initial residual = 0.0166881, Final residual = 0.000471123, No Iterations 2
time step continuity errors : sum local = 0.00046152, global = -4.23752e-08, cumulative = 0.00431739
DICPCG:  Solving for p_rgh, Initial residual = 0.000612542, Final residual = 2.55017e-05, No Iterations 11
time step continuity errors : sum local = 2.49302e-05, global = 3.56693e-07, cumulative = 0.00431775
DICPCG:  Solving for p_rgh, Initial residual = 0.000103694, Final residual = 8.91431e-08, No Iterations 44
time step continuity errors : sum local = 8.7184e-08, global = 5.59698e-10, cumulative = 0.00431775
ExecutionTime = 3.5 s  ClockTime = 3 s

Courant Number mean: 0.17331 max: 0.955194
Interface Courant Number mean: 0.0281063 max: 0.632819
deltaT = 0.00277778
Time = 0.991667

PIMPLE: iteration 1
smoothSolver:  Solving for alpha.water, Initial residual = 0.00604279, Final residual = 7.7364e-10, No Iterations 4
Phase-1 volume fraction = 0.128169  Min(alpha.water) = -1.61296e-14  Max(alpha.water) = 1
MULES: Correcting alpha.water
MULES: Correcting alpha.water
Phase-1 volume fraction = 0.128169  Min(alpha.water) = -9.20987e-06  Max(alpha.water) = 1
DICPCG:  Solving for p_rgh, Initial residual = 0.0176937, Final residual = 0.000444289, No Iterations 2
time step continuity errors : sum local = 0.000438161, global = -8.16859e-09, cumulative = 0.00431774
DICPCG:  Solving for p_rgh, Initial residual = 0.000579045, Final residual = 2.70116e-05, No Iterations 11
time step continuity errors : sum local = 2.65959e-05, global = -5.84001e-07, cumulative = 0.00431715
DICPCG:  Solving for p_rgh, Initial residual = 0.000102649, Final residual = 9.68623e-08, No Iterations 44
time step continuity errors : sum local = 9.52814e-08, global = -6.91907e-09, cumulative = 0.00431715
ExecutionTime = 3.5 s  ClockTime = 3 s

Courant Number mean: 0.173051 max: 0.945619
Interface Courant Number mean: 0.0280233 max: 0.619707
deltaT = 0.00277778
Time = 0.994444

PIMPLE: iteration 1
smoothSolver:  Solving for alpha.water, Initial residual = 0.00588162, Final residual = 7.44894e-10, No Iterations 4
Phase-1 volume fraction = 0.128169  Min(alpha.water) = -1.56799e-14  Max(alpha.water) = 1
MULES: Correcting alpha.water
MULES: Correcting alpha.water
Phase-1 volume fraction = 0.128169  Min(alpha.water) = -1.08067e-05  Max(alpha.water) = 1
DICPCG:  Solving for p_rgh, Initial residual = 0.0178449, Final residual = 0.000410024, No Iterations 2
time step continuity errors : sum local = 0.000402025, global = 2.00495e-08, cumulative = 0.00431717
DICPCG:  Solving for p_rgh, Initial residual = 0.000538421, Final residual = 2.54235e-05, No Iterations 10
time step continuity errors : sum local = 2.48842e-05, global = -1.87013e-06, cumulative = 0.0043153
DICPCG:  Solving for p_rgh, Initial residual = 9.77504e-05, Final residual = 9.59815e-08, No Iterations 41
time step continuity errors : sum local = 9.3522e-08, global = 7.60772e-10, cumulative = 0.0043153
ExecutionTime = 3.51 s  ClockTime = 3 s

Courant Number mean: 0.172744 max: 0.932511
Interface Courant Number mean: 0.0282208 max: 0.617195
deltaT = 0.00277778
Time = 0.997222

PIMPLE: iteration 1
smoothSolver:  Solving for alpha.water, Initial residual = 0.00590433, Final residual = 6.90197e-10, No Iterations 4
Phase-1 volume fraction = 0.128169  Min(alpha.water) = -1.52397e-14  Max(alpha.water) = 1
MULES: Correcting alpha.water
MULES: Correcting alpha.water
Phase-1 volume fraction = 0.128169  Min(alpha.water) = -1.21841e-05  Max(alpha.water) = 1
DICPCG:  Solving for p_rgh, Initial residual = 0.0172242, Final residual = 0.000420773, No Iterations 2
time step continuity errors : sum local = 0.00040934, global = 1.15293e-07, cumulative = 0.00431541
DICPCG:  Solving for p_rgh, Initial residual = 0.000544566, Final residual = 2.18324e-05, No Iterations 11
time step continuity errors : sum local = 2.11684e-05, global = 1.87528e-07, cumulative = 0.0043156
DICPCG:  Solving for p_rgh, Initial residual = 0.00010139, Final residual = 8.78235e-08, No Iterations 33
time step continuity errors : sum local = 8.4822e-08, global = 2.48289e-08, cumulative = 0.00431562
ExecutionTime = 3.52 s  ClockTime = 3 s

Courant Number mean: 0.172517 max: 0.916817
Interface Courant Number mean: 0.0276163 max: 0.583041
deltaT = 0.00277778
Time = 1

PIMPLE: iteration 1
smoothSolver:  Solving for alpha.water, Initial residual = 0.00598148, Final residual = 6.08005e-10, No Iterations 4
Phase-1 volume fraction = 0.128169  Min(alpha.water) = -6.12841e-11  Max(alpha.water) = 1
MULES: Correcting alpha.water
MULES: Correcting alpha.water
Phase-1 volume fraction = 0.128169  Min(alpha.water) = -1.41032e-05  Max(alpha.water) = 1
DICPCG:  Solving for p_rgh, Initial residual = 0.0173738, Final residual = 0.000420239, No Iterations 2
time step continuity errors : sum local = 0.000418899, global = 5.65457e-08, cumulative = 0.00431568
DICPCG:  Solving for p_rgh, Initial residual = 0.000528501, Final residual = 2.36923e-05, No Iterations 11
time step continuity errors : sum local = 2.35354e-05, global = 6.61843e-08, cumulative = 0.00431575
DICPCG:  Solving for p_rgh, Initial residual = 9.86779e-05, Final residual = 8.91413e-08, No Iterations 32
time step continuity errors : sum local = 8.81718e-08, global = 6.80144e-09, cumulative = 0.00431575
ExecutionTime = 3.52 s  ClockTime = 3 s

End

