/*---------------------------------------------------------------------------*\
| =========                 |                                                 |
| \\      /  F ield         | OpenFOAM: The Open Source CFD Toolbox           |
|  \\    /   O peration     | Version:  2206                                  |
|   \\  /    A nd           | Website:  www.openfoam.com                      |
|    \\/     M anipulation  |                                                 |
\*---------------------------------------------------------------------------*/
Build  : _76d719d1-20220624 OPENFOAM=2206 version=2206
Arch   : "LSB;label=32;scalar=64"
Exec   : interFoam
Date   : Nov 28 2022
Time   : 17:06:16
Host   : LAPTOP-2J3LPIFO
PID    : 7198
I/O    : uncollated
Case   : /home/bepnos/PyFoamTesting/cloned-dambreak504
nProcs : 1
trapFpe: Floating point exception trapping enabled (FOAM_SIGFPE).
fileModificationChecking : Monitoring run-time modified files using timeStampMaster (fileModificationSkew 5, maxFileModificationPolls 20)
allowSystemOperations : Allowing user-supplied system call operations

// * * * * * * * * * * * * * * * * * * * * * * * * * * * * * * * * * * * * * //
Create time

Create mesh for time = 0


PIMPLE: Operating solver in PISO mode

Reading field p_rgh

Reading field U

Reading/calculating face flux field phi

Reading transportProperties

Selecting incompressible transport model Newtonian
Selecting incompressible transport model Newtonian
Selecting turbulence model type laminar
Selecting laminar stress model Stokes

Reading g

Reading hRef
Calculating field g.h

No MRF models present

No finite volume options present
DICPCG:  Solving for pcorr, Initial residual = 0, Final residual = 0, No Iterations 0
time step continuity errors : sum local = 0, global = 0, cumulative = 0
Courant Number mean: 0 max: 0

Starting time loop

Sampled set:
    gauge_1 -> vtk
    gauge_2 -> vtk

Courant Number mean: 0 max: 0
Interface Courant Number mean: 0 max: 0
deltaT = 0.00119048
Time = 0.00119048

PIMPLE: iteration 1
smoothSolver:  Solving for alpha.water, Initial residual = 0, Final residual = 0, No Iterations 0
Phase-1 volume fraction = 0.130194  Min(alpha.water) = 0  Max(alpha.water) = 1
MULES: Correcting alpha.water
MULES: Correcting alpha.water
Phase-1 volume fraction = 0.130194  Min(alpha.water) = 0  Max(alpha.water) = 1
DICPCG:  Solving for p_rgh, Initial residual = 1, Final residual = 0.00312169, No Iterations 1
time step continuity errors : sum local = 0.000863663, global = -1.26728e-12, cumulative = -1.26728e-12
DICPCG:  Solving for p_rgh, Initial residual = 0.00146342, Final residual = 6.18289e-05, No Iterations 13
time step continuity errors : sum local = 3.6494e-05, global = -1.00159e-05, cumulative = -1.00159e-05
DICPCG:  Solving for p_rgh, Initial residual = 5.08541e-05, Final residual = 8.19126e-08, No Iterations 48
time step continuity errors : sum local = 5.88485e-08, global = 1.01685e-08, cumulative = -1.00057e-05
ExecutionTime = 0.03 s  ClockTime = 0 s

Courant Number mean: 0.00124881 max: 0.107249
Interface Courant Number mean: 0 max: 0
deltaT = 0.00140056
Time = 0.00259104

PIMPLE: iteration 1
smoothSolver:  Solving for alpha.water, Initial residual = 0.000283302, Final residual = 1.81241e-12, No Iterations 2
Phase-1 volume fraction = 0.130194  Min(alpha.water) = 0  Max(alpha.water) = 1
MULES: Correcting alpha.water
MULES: Correcting alpha.water
Phase-1 volume fraction = 0.130194  Min(alpha.water) = -3.80103e-13  Max(alpha.water) = 1
DICPCG:  Solving for p_rgh, Initial residual = 0.00310255, Final residual = 0.000102213, No Iterations 2
time step continuity errors : sum local = 8.71625e-05, global = 2.86221e-08, cumulative = -9.97706e-06
DICPCG:  Solving for p_rgh, Initial residual = 0.000211922, Final residual = 9.20491e-06, No Iterations 35
time step continuity errors : sum local = 7.85339e-06, global = -8.71958e-08, cumulative = -1.00643e-05
DICPCG:  Solving for p_rgh, Initial residual = 2.94813e-05, Final residual = 9.67966e-08, No Iterations 43
time step continuity errors : sum local = 8.25555e-08, global = 5.71756e-09, cumulative = -1.00585e-05
ExecutionTime = 0.04 s  ClockTime = 0 s

Courant Number mean: 0.00182663 max: 0.0552106
Interface Courant Number mean: 5.01724e-05 max: 0.0552106
deltaT = 0.00172377
Time = 0.0043148

PIMPLE: iteration 1
smoothSolver:  Solving for alpha.water, Initial residual = 0.000201016, Final residual = 9.99274e-14, No Iterations 2
Phase-1 volume fraction = 0.130194  Min(alpha.water) = 0  Max(alpha.water) = 1
MULES: Correcting alpha.water
MULES: Correcting alpha.water
Phase-1 volume fraction = 0.130194  Min(alpha.water) = -1.01945e-18  Max(alpha.water) = 1
DICPCG:  Solving for p_rgh, Initial residual = 0.00276763, Final residual = 6.28322e-05, No Iterations 2
time step continuity errors : sum local = 7.33201e-05, global = 2.34587e-11, cumulative = -1.00585e-05
DICPCG:  Solving for p_rgh, Initial residual = 6.37394e-05, Final residual = 2.47948e-06, No Iterations 36
time step continuity errors : sum local = 2.89135e-06, global = 2.19525e-09, cumulative = -1.00563e-05
DICPCG:  Solving for p_rgh, Initial residual = 2.97088e-06, Final residual = 7.10385e-08, No Iterations 19
time step continuity errors : sum local = 8.28905e-08, global = -4.73095e-09, cumulative = -1.00611e-05
ExecutionTime = 0.05 s  ClockTime = 0 s

Courant Number mean: 0.00337894 max: 0.0543456
Interface Courant Number mean: 4.49631e-05 max: 0.0459025
deltaT = 0.00206852
Time = 0.00638332

PIMPLE: iteration 1
smoothSolver:  Solving for alpha.water, Initial residual = 0.000248362, Final residual = 1.15249e-13, No Iterations 2
Phase-1 volume fraction = 0.130194  Min(alpha.water) = 0  Max(alpha.water) = 1
MULES: Correcting alpha.water
MULES: Correcting alpha.water
Phase-1 volume fraction = 0.130194  Min(alpha.water) = -7.14681e-18  Max(alpha.water) = 1
DICPCG:  Solving for p_rgh, Initial residual = 0.0036486, Final residual = 0.000156389, No Iterations 1
time step continuity errors : sum local = 0.000240625, global = -1.4537e-08, cumulative = -1.00756e-05
DICPCG:  Solving for p_rgh, Initial residual = 0.000159401, Final residual = 7.823e-06, No Iterations 9
time step continuity errors : sum local = 1.20139e-05, global = -2.35107e-07, cumulative = -1.03107e-05
DICPCG:  Solving for p_rgh, Initial residual = 8.30686e-06, Final residual = 8.86672e-08, No Iterations 37
time step continuity errors : sum local = 1.36201e-07, global = -6.61388e-09, cumulative = -1.03173e-05
ExecutionTime = 0.05 s  ClockTime = 0 s

Courant Number mean: 0.0058059 max: 0.0656493
Interface Courant Number mean: 0.000179414 max: 0.052081
deltaT = 0.00265953
Time = 0.00904285

PIMPLE: iteration 1
smoothSolver:  Solving for alpha.water, Initial residual = 0.000402597, Final residual = 1.28624e-12, No Iterations 2
Phase-1 volume fraction = 0.130194  Min(alpha.water) = 0  Max(alpha.water) = 1
MULES: Correcting alpha.water
MULES: Correcting alpha.water
Phase-1 volume fraction = 0.130194  Min(alpha.water) = -1.10454e-13  Max(alpha.water) = 1
DICPCG:  Solving for p_rgh, Initial residual = 0.00609537, Final residual = 0.000181287, No Iterations 1
time step continuity errors : sum local = 0.000430078, global = 6.95276e-09, cumulative = -1.03104e-05
DICPCG:  Solving for p_rgh, Initial residual = 0.00018434, Final residual = 8.28203e-06, No Iterations 9
time step continuity errors : sum local = 1.95711e-05, global = -7.33918e-08, cumulative = -1.03838e-05
DICPCG:  Solving for p_rgh, Initial residual = 9.41326e-06, Final residual = 8.54575e-08, No Iterations 38
time step continuity errors : sum local = 2.02007e-07, global = 2.16191e-10, cumulative = -1.03835e-05
ExecutionTime = 0.06 s  ClockTime = 0 s

Courant Number mean: 0.0104467 max: 0.091748
Interface Courant Number mean: 0.000387748 max: 0.0862549
deltaT = 0.00319143
Time = 0.0122343

PIMPLE: iteration 1
smoothSolver:  Solving for alpha.water, Initial residual = 0.000631042, Final residual = 9.09707e-12, No Iterations 2
Phase-1 volume fraction = 0.130194  Min(alpha.water) = 0  Max(alpha.water) = 1
MULES: Correcting alpha.water
MULES: Correcting alpha.water
Phase-1 volume fraction = 0.130194  Min(alpha.water) = -1.45533e-12  Max(alpha.water) = 1
DICPCG:  Solving for p_rgh, Initial residual = 0.00973147, Final residual = 0.000210773, No Iterations 1
time step continuity errors : sum local = 0.000682584, global = 5.52288e-08, cumulative = -1.03283e-05
DICPCG:  Solving for p_rgh, Initial residual = 0.00021355, Final residual = 1.06389e-05, No Iterations 9
time step continuity errors : sum local = 3.42326e-05, global = 2.42705e-07, cumulative = -1.00856e-05
DICPCG:  Solving for p_rgh, Initial residual = 1.35976e-05, Final residual = 9.74353e-08, No Iterations 37
time step continuity errors : sum local = 3.13728e-07, global = 8.30499e-09, cumulative = -1.00773e-05
ExecutionTime = 0.08 s  ClockTime = 0 s

Courant Number mean: 0.0168224 max: 0.140698
Interface Courant Number mean: 0.000713154 max: 0.136779
deltaT = 0.00425524
Time = 0.0164895

PIMPLE: iteration 1
smoothSolver:  Solving for alpha.water, Initial residual = 0.00108147, Final residual = 9.03143e-11, No Iterations 2
Phase-1 volume fraction = 0.130194  Min(alpha.water) = 0  Max(alpha.water) = 1
MULES: Correcting alpha.water
MULES: Correcting alpha.water
Phase-1 volume fraction = 0.130194  Min(alpha.water) = -3.21331e-11  Max(alpha.water) = 1
DICPCG:  Solving for p_rgh, Initial residual = 0.0168033, Final residual = 0.000267354, No Iterations 1
time step continuity errors : sum local = 0.00145588, global = 1.51019e-07, cumulative = -9.92628e-06
DICPCG:  Solving for p_rgh, Initial residual = 0.000273634, Final residual = 1.29511e-05, No Iterations 10
time step continuity errors : sum local = 6.97428e-05, global = 1.2414e-06, cumulative = -8.68488e-06
DICPCG:  Solving for p_rgh, Initial residual = 2.05509e-05, Final residual = 9.29933e-08, No Iterations 39
time step continuity errors : sum local = 5.01368e-07, global = -8.71923e-08, cumulative = -8.77207e-06
ExecutionTime = 0.08 s  ClockTime = 0 s

Courant Number mean: 0.0301419 max: 0.23745
Interface Courant Number mean: 0.00149804 max: 0.23745
deltaT = 0.00425524
Time = 0.0207448

PIMPLE: iteration 1
smoothSolver:  Solving for alpha.water, Initial residual = 0.00139935, Final residual = 2.17876e-10, No Iterations 2
Phase-1 volume fraction = 0.130194  Min(alpha.water) = 0  Max(alpha.water) = 1
MULES: Correcting alpha.water
MULES: Correcting alpha.water
Phase-1 volume fraction = 0.130194  Min(alpha.water) = -9.8821e-11  Max(alpha.water) = 1
DICPCG:  Solving for p_rgh, Initial residual = 0.0222448, Final residual = 0.000288568, No Iterations 1
time step continuity errors : sum local = 0.00150183, global = -2.65382e-08, cumulative = -8.79861e-06
DICPCG:  Solving for p_rgh, Initial residual = 0.000296815, Final residual = 1.34413e-05, No Iterations 11
time step continuity errors : sum local = 6.89321e-05, global = 2.78642e-06, cumulative = -6.01219e-06
DICPCG:  Solving for p_rgh, Initial residual = 2.50999e-05, Final residual = 9.93322e-08, No Iterations 38
time step continuity errors : sum local = 5.10601e-07, global = -7.59187e-08, cumulative = -6.08811e-06
ExecutionTime = 0.09 s  ClockTime = 0 s

Courant Number mean: 0.0377819 max: 0.281989
Interface Courant Number mean: 0.00186173 max: 0.281989
deltaT = 0.00425524
Time = 0.025

PIMPLE: iteration 1
smoothSolver:  Solving for alpha.water, Initial residual = 0.00170302, Final residual = 3.58116e-10, No Iterations 2
Phase-1 volume fraction = 0.130194  Min(alpha.water) = 0  Max(alpha.water) = 1
MULES: Correcting alpha.water
MULES: Correcting alpha.water
Phase-1 volume fraction = 0.130194  Min(alpha.water) = -1.53426e-09  Max(alpha.water) = 1
DICPCG:  Solving for p_rgh, Initial residual = 0.0271598, Final residual = 0.0002387, No Iterations 1
time step continuity errors : sum local = 0.00119118, global = 9.4601e-08, cumulative = -5.99351e-06
DICPCG:  Solving for p_rgh, Initial residual = 0.000249606, Final residual = 8.8634e-06, No Iterations 12
time step continuity errors : sum local = 4.34108e-05, global = -4.16458e-07, cumulative = -6.40996e-06
DICPCG:  Solving for p_rgh, Initial residual = 2.17259e-05, Final residual = 9.7222e-08, No Iterations 40
time step continuity errors : sum local = 4.77611e-07, global = -6.5656e-08, cumulative = -6.47562e-06
ExecutionTime = 0.1 s  ClockTime = 0 s

Courant Number mean: 0.0456042 max: 0.334943
Interface Courant Number mean: 0.00233437 max: 0.326762
deltaT = 0.005
Time = 0.03

PIMPLE: iteration 1
smoothSolver:  Solving for alpha.water, Initial residual = 0.00239601, Final residual = 1.77117e-13, No Iterations 3
Phase-1 volume fraction = 0.130194  Min(alpha.water) = 0  Max(alpha.water) = 1
MULES: Correcting alpha.water
MULES: Correcting alpha.water
Phase-1 volume fraction = 0.130194  Min(alpha.water) = -4.00717e-09  Max(alpha.water) = 1
DICPCG:  Solving for p_rgh, Initial residual = 0.0379157, Final residual = 0.00026903, No Iterations 1
time step continuity errors : sum local = 0.00173218, global = 3.14267e-07, cumulative = -6.16135e-06
DICPCG:  Solving for p_rgh, Initial residual = 0.000287788, Final residual = 1.38743e-05, No Iterations 10
time step continuity errors : sum local = 8.69724e-05, global = 4.98036e-06, cumulative = -1.18099e-06
DICPCG:  Solving for p_rgh, Initial residual = 3.47205e-05, Final residual = 9.85943e-08, No Iterations 41
time step continuity errors : sum local = 6.20385e-07, global = -8.81585e-08, cumulative = -1.26915e-06
ExecutionTime = 0.11 s  ClockTime = 0 s

Courant Number mean: 0.0642271 max: 0.439379
Interface Courant Number mean: 0.00337534 max: 0.423216
deltaT = 0.00666667
Time = 0.0366667

PIMPLE: iteration 1
smoothSolver:  Solving for alpha.water, Initial residual = 0.00376042, Final residual = 2.97449e-12, No Iterations 3
Phase-1 volume fraction = 0.130194  Min(alpha.water) = 0  Max(alpha.water) = 1
MULES: Correcting alpha.water
MULES: Correcting alpha.water
Phase-1 volume fraction = 0.130194  Min(alpha.water) = -4.8114e-10  Max(alpha.water) = 1
DICPCG:  Solving for p_rgh, Initial residual = 0.0592682, Final residual = 0.00040299, No Iterations 1
time step continuity errors : sum local = 0.00411709, global = 8.97717e-07, cumulative = -3.71431e-07
DICPCG:  Solving for p_rgh, Initial residual = 0.000456157, Final residual = 2.1706e-05, No Iterations 10
time step continuity errors : sum local = 0.000211727, global = 1.63638e-05, cumulative = 1.59924e-05
DICPCG:  Solving for p_rgh, Initial residual = 6.99662e-05, Final residual = 9.84424e-08, No Iterations 47
time step continuity errors : sum local = 9.66986e-07, global = 8.59328e-09, cumulative = 1.6001e-05
ExecutionTime = 0.11 s  ClockTime = 0 s

Courant Number mean: 0.104107 max: 0.7053
Interface Courant Number mean: 0.00599131 max: 0.700672
deltaT = 0.00666667
Time = 0.0433333

PIMPLE: iteration 1
smoothSolver:  Solving for alpha.water, Initial residual = 0.00446006, Final residual = 9.97094e-09, No Iterations 3
Phase-1 volume fraction = 0.130194  Min(alpha.water) = 0  Max(alpha.water) = 1
MULES: Correcting alpha.water
MULES: Correcting alpha.water
Phase-1 volume fraction = 0.130194  Min(alpha.water) = -9.27361e-11  Max(alpha.water) = 1
DICPCG:  Solving for p_rgh, Initial residual = 0.0702906, Final residual = 0.000515093, No Iterations 1
time step continuity errors : sum local = 0.00468257, global = 8.96074e-07, cumulative = 1.6897e-05
DICPCG:  Solving for p_rgh, Initial residual = 0.00060027, Final residual = 2.95402e-05, No Iterations 10
time step continuity errors : sum local = 0.000253613, global = 2.57942e-05, cumulative = 4.26913e-05
DICPCG:  Solving for p_rgh, Initial residual = 9.32342e-05, Final residual = 8.98533e-08, No Iterations 46
time step continuity errors : sum local = 7.80872e-07, global = 4.07516e-08, cumulative = 4.2732e-05
ExecutionTime = 0.12 s  ClockTime = 0 s

Courant Number mean: 0.122055 max: 0.800159
Interface Courant Number mean: 0.00906183 max: 0.769518
deltaT = 0.00666667
Time = 0.05

PIMPLE: iteration 1
smoothSolver:  Solving for alpha.water, Initial residual = 0.00512521, Final residual = 7.43635e-11, No Iterations 4
Phase-1 volume fraction = 0.130194  Min(alpha.water) = 0  Max(alpha.water) = 1
MULES: Correcting alpha.water
MULES: Correcting alpha.water
Phase-1 volume fraction = 0.130194  Min(alpha.water) = -3.0262e-10  Max(alpha.water) = 1
DICPCG:  Solving for p_rgh, Initial residual = 0.0744181, Final residual = 0.00066083, No Iterations 1
time step continuity errors : sum local = 0.00527547, global = 5.63659e-07, cumulative = 4.32957e-05
DICPCG:  Solving for p_rgh, Initial residual = 0.000766787, Final residual = 3.58647e-05, No Iterations 10
time step continuity errors : sum local = 0.000269217, global = 4.16661e-05, cumulative = 8.49618e-05
DICPCG:  Solving for p_rgh, Initial residual = 0.000124404, Final residual = 7.67602e-08, No Iterations 46
time step continuity errors : sum local = 5.8637e-07, global = 5.95737e-08, cumulative = 8.50214e-05
ExecutionTime = 0.13 s  ClockTime = 0 s

Courant Number mean: 0.139441 max: 0.896416
Interface Courant Number mean: 0.0110371 max: 0.86064
deltaT = 0.00833333
Time = 0.0583333

PIMPLE: iteration 1
smoothSolver:  Solving for alpha.water, Initial residual = 0.00720579, Final residual = 3.88173e-09, No Iterations 4
Phase-1 volume fraction = 0.130194  Min(alpha.water) = 0  Max(alpha.water) = 1
MULES: Correcting alpha.water
MULES: Correcting alpha.water
Phase-1 volume fraction = 0.130194  Min(alpha.water) = -1.57129e-09  Max(alpha.water) = 1
DICPCG:  Solving for p_rgh, Initial residual = 0.0790921, Final residual = 0.00114249, No Iterations 1
time step continuity errors : sum local = 0.0119766, global = 9.90687e-07, cumulative = 8.6012e-05
DICPCG:  Solving for p_rgh, Initial residual = 0.00135785, Final residual = 6.27544e-05, No Iterations 11
time step continuity errors : sum local = 0.000613618, global = 0.000110526, cumulative = 0.000196539
DICPCG:  Solving for p_rgh, Initial residual = 0.000250674, Final residual = 9.71079e-08, No Iterations 51
time step continuity errors : sum local = 9.77656e-07, global = -3.35511e-08, cumulative = 0.000196505
ExecutionTime = 0.14 s  ClockTime = 0 s

Courant Number mean: 0.201576 max: 1.23648
Interface Courant Number mean: 0.0178664 max: 1.20705
deltaT = 0.00833333
Time = 0.0666667

PIMPLE: iteration 1
smoothSolver:  Solving for alpha.water, Initial residual = 0.0082648, Final residual = 1.58321e-10, No Iterations 5
Phase-1 volume fraction = 0.130194  Min(alpha.water) = 0  Max(alpha.water) = 1
MULES: Correcting alpha.water
MULES: Correcting alpha.water
Phase-1 volume fraction = 0.130194  Min(alpha.water) = -2.95075e-10  Max(alpha.water) = 1
DICPCG:  Solving for p_rgh, Initial residual = 0.0604328, Final residual = 0.00174341, No Iterations 1
time step continuity errors : sum local = 0.0163281, global = -7.08226e-07, cumulative = 0.000195797
DICPCG:  Solving for p_rgh, Initial residual = 0.00201834, Final residual = 8.74318e-05, No Iterations 11
time step continuity errors : sum local = 0.00077785, global = 0.000177509, cumulative = 0.000373306
DICPCG:  Solving for p_rgh, Initial residual = 0.000334338, Final residual = 9.16034e-08, No Iterations 52
time step continuity errors : sum local = 8.46341e-07, global = -9.69353e-09, cumulative = 0.000373296
ExecutionTime = 0.14 s  ClockTime = 0 s

Courant Number mean: 0.227526 max: 1.61918
Interface Courant Number mean: 0.0228926 max: 1.32506
deltaT = 0.00416667
Time = 0.0708333

PIMPLE: iteration 1
smoothSolver:  Solving for alpha.water, Initial residual = 0.00461228, Final residual = 6.87318e-10, No Iterations 4
Phase-1 volume fraction = 0.130194  Min(alpha.water) = -1.6328e-10  Max(alpha.water) = 1
MULES: Correcting alpha.water
MULES: Correcting alpha.water
Phase-1 volume fraction = 0.130194  Min(alpha.water) = -1.11906e-08  Max(alpha.water) = 1
DICPCG:  Solving for p_rgh, Initial residual = 0.0292633, Final residual = 0.00120483, No Iterations 1
time step continuity errors : sum local = 0.00304642, global = -1.45107e-06, cumulative = 0.000371845
DICPCG:  Solving for p_rgh, Initial residual = 0.00131511, Final residual = 6.11917e-05, No Iterations 11
time step continuity errors : sum local = 0.000152608, global = 3.40509e-05, cumulative = 0.000405896
DICPCG:  Solving for p_rgh, Initial residual = 0.000151829, Final residual = 9.87005e-08, No Iterations 48
time step continuity errors : sum local = 2.51526e-07, global = -1.28302e-09, cumulative = 0.000405895
ExecutionTime = 0.15 s  ClockTime = 0 s

Courant Number mean: 0.11954 max: 0.895716
Interface Courant Number mean: 0.0110378 max: 0.672928
deltaT = 0.00416667
Time = 0.075

PIMPLE: iteration 1
smoothSolver:  Solving for alpha.water, Initial residual = 0.00483688, Final residual = 6.25655e-10, No Iterations 4
Phase-1 volume fraction = 0.130194  Min(alpha.water) = -7.71098e-11  Max(alpha.water) = 1
MULES: Correcting alpha.water
MULES: Correcting alpha.water
Phase-1 volume fraction = 0.130194  Min(alpha.water) = -6.06435e-09  Max(alpha.water) = 1
DICPCG:  Solving for p_rgh, Initial residual = 0.0524009, Final residual = 0.00061877, No Iterations 1
time step continuity errors : sum local = 0.00190446, global = -5.13922e-07, cumulative = 0.000405381
DICPCG:  Solving for p_rgh, Initial residual = 0.000703968, Final residual = 3.11524e-05, No Iterations 12
time step continuity errors : sum local = 9.14436e-05, global = 1.57715e-05, cumulative = 0.000421152
DICPCG:  Solving for p_rgh, Initial residual = 9.92486e-05, Final residual = 9.18453e-08, No Iterations 48
time step continuity errors : sum local = 2.74031e-07, global = -3.06017e-09, cumulative = 0.000421149
ExecutionTime = 0.17 s  ClockTime = 0 s

Courant Number mean: 0.125509 max: 1.0178
Interface Courant Number mean: 0.0112199 max: 0.722272
deltaT = 0.00416667
Time = 0.0791667

PIMPLE: iteration 1
smoothSolver:  Solving for alpha.water, Initial residual = 0.00509236, Final residual = 5.94404e-10, No Iterations 4
Phase-1 volume fraction = 0.130194  Min(alpha.water) = -2.14338e-11  Max(alpha.water) = 1
MULES: Correcting alpha.water
MULES: Correcting alpha.water
Phase-1 volume fraction = 0.130194  Min(alpha.water) = -5.82053e-09  Max(alpha.water) = 1
DICPCG:  Solving for p_rgh, Initial residual = 0.0572466, Final residual = 0.000757315, No Iterations 1
time step continuity errors : sum local = 0.00226768, global = -1.19697e-07, cumulative = 0.00042103
DICPCG:  Solving for p_rgh, Initial residual = 0.000866779, Final residual = 4.28847e-05, No Iterations 11
time step continuity errors : sum local = 0.000121698, global = 2.07272e-05, cumulative = 0.000441757
DICPCG:  Solving for p_rgh, Initial residual = 0.000128788, Final residual = 7.61585e-08, No Iterations 49
time step continuity errors : sum local = 2.2003e-07, global = -8.68336e-09, cumulative = 0.000441748
ExecutionTime = 0.17 s  ClockTime = 0 s

Courant Number mean: 0.131608 max: 1.18138
Interface Courant Number mean: 0.0122941 max: 0.759409
deltaT = 0.00347222
Time = 0.0826389

PIMPLE: iteration 1
smoothSolver:  Solving for alpha.water, Initial residual = 0.0044681, Final residual = 2.02644e-10, No Iterations 4
Phase-1 volume fraction = 0.130194  Min(alpha.water) = -1.72901e-11  Max(alpha.water) = 1
MULES: Correcting alpha.water
MULES: Correcting alpha.water
Phase-1 volume fraction = 0.130194  Min(alpha.water) = -1.73362e-09  Max(alpha.water) = 1
DICPCG:  Solving for p_rgh, Initial residual = 0.0421016, Final residual = 0.00091342, No Iterations 1
time step continuity errors : sum local = 0.00178139, global = -2.23099e-07, cumulative = 0.000441525
DICPCG:  Solving for p_rgh, Initial residual = 0.00101945, Final residual = 4.13181e-05, No Iterations 11
time step continuity errors : sum local = 7.75561e-05, global = 1.63778e-05, cumulative = 0.000457903
DICPCG:  Solving for p_rgh, Initial residual = 0.000125753, Final residual = 6.97687e-08, No Iterations 49
time step continuity errors : sum local = 1.33181e-07, global = -3.25906e-09, cumulative = 0.000457899
ExecutionTime = 0.18 s  ClockTime = 0 s

Courant Number mean: 0.113803 max: 1.14407
Interface Courant Number mean: 0.010289 max: 0.650577
deltaT = 0.00289352
Time = 0.0855324

PIMPLE: iteration 1
smoothSolver:  Solving for alpha.water, Initial residual = 0.00388442, Final residual = 7.52133e-09, No Iterations 3
Phase-1 volume fraction = 0.130194  Min(alpha.water) = -1.38214e-11  Max(alpha.water) = 1
MULES: Correcting alpha.water
MULES: Correcting alpha.water
Phase-1 volume fraction = 0.130194  Min(alpha.water) = -4.71925e-09  Max(alpha.water) = 1
DICPCG:  Solving for p_rgh, Initial residual = 0.0326741, Final residual = 0.00103736, No Iterations 1
time step continuity errors : sum local = 0.00136927, global = -1.6989e-07, cumulative = 0.00045773
DICPCG:  Solving for p_rgh, Initial residual = 0.00114166, Final residual = 5.26489e-05, No Iterations 11
time step continuity errors : sum local = 6.77105e-05, global = 1.19209e-05, cumulative = 0.00046965
DICPCG:  Solving for p_rgh, Initial residual = 0.000128101, Final residual = 6.80708e-08, No Iterations 49
time step continuity errors : sum local = 8.87919e-08, global = -3.25064e-09, cumulative = 0.000469647
ExecutionTime = 0.18 s  ClockTime = 0 s

Courant Number mean: 0.0978081 max: 1.06334
Interface Courant Number mean: 0.00847097 max: 0.64189
deltaT = 0.00289352
Time = 0.0884259

PIMPLE: iteration 1
smoothSolver:  Solving for alpha.water, Initial residual = 0.00399633, Final residual = 7.72511e-09, No Iterations 3
Phase-1 volume fraction = 0.130194  Min(alpha.water) = -1.0882e-11  Max(alpha.water) = 1
MULES: Correcting alpha.water
MULES: Correcting alpha.water
Phase-1 volume fraction = 0.130194  Min(alpha.water) = -1.06841e-08  Max(alpha.water) = 1
DICPCG:  Solving for p_rgh, Initial residual = 0.0306422, Final residual = 0.000923812, No Iterations 1
time step continuity errors : sum local = 0.00123106, global = -1.07973e-07, cumulative = 0.000469539
DICPCG:  Solving for p_rgh, Initial residual = 0.00103548, Final residual = 5.0379e-05, No Iterations 11
time step continuity errors : sum local = 6.55017e-05, global = 1.17424e-05, cumulative = 0.000481282
DICPCG:  Solving for p_rgh, Initial residual = 0.000120154, Final residual = 9.53113e-08, No Iterations 48
time step continuity errors : sum local = 1.25552e-07, global = -5.37261e-09, cumulative = 0.000481276
ExecutionTime = 0.19 s  ClockTime = 0 s

Courant Number mean: 0.100661 max: 1.16857
Interface Courant Number mean: 0.00850802 max: 0.659305
deltaT = 0.00231481
Time = 0.0907407

PIMPLE: iteration 1
smoothSolver:  Solving for alpha.water, Initial residual = 0.00328332, Final residual = 2.3726e-09, No Iterations 3
Phase-1 volume fraction = 0.130194  Min(alpha.water) = -9.01418e-12  Max(alpha.water) = 1
MULES: Correcting alpha.water
MULES: Correcting alpha.water
Phase-1 volume fraction = 0.130194  Min(alpha.water) = -1.01197e-08  Max(alpha.water) = 1
DICPCG:  Solving for p_rgh, Initial residual = 0.0291615, Final residual = 0.000726358, No Iterations 1
time step continuity errors : sum local = 0.000670792, global = -1.16905e-07, cumulative = 0.000481159
DICPCG:  Solving for p_rgh, Initial residual = 0.000798243, Final residual = 3.89906e-05, No Iterations 11
time step continuity errors : sum local = 3.52219e-05, global = 5.8825e-06, cumulative = 0.000487042
DICPCG:  Solving for p_rgh, Initial residual = 8.47359e-05, Final residual = 7.74471e-08, No Iterations 47
time step continuity errors : sum local = 7.07059e-08, global = -4.98196e-09, cumulative = 0.000487037
ExecutionTime = 0.2 s  ClockTime = 0 s

Courant Number mean: 0.0821888 max: 0.994083
Interface Courant Number mean: 0.00687497 max: 0.539264
deltaT = 0.00231481
Time = 0.0930556

PIMPLE: iteration 1
smoothSolver:  Solving for alpha.water, Initial residual = 0.00339011, Final residual = 2.37069e-09, No Iterations 3
Phase-1 volume fraction = 0.130194  Min(alpha.water) = -7.3619e-12  Max(alpha.water) = 1
MULES: Correcting alpha.water
MULES: Correcting alpha.water
Phase-1 volume fraction = 0.130194  Min(alpha.water) = -5.73974e-08  Max(alpha.water) = 1
DICPCG:  Solving for p_rgh, Initial residual = 0.0342382, Final residual = 0.000516057, No Iterations 1
time step continuity errors : sum local = 0.000518128, global = -6.22481e-08, cumulative = 0.000486975
DICPCG:  Solving for p_rgh, Initial residual = 0.000577825, Final residual = 2.56117e-05, No Iterations 12
time step continuity errors : sum local = 2.49261e-05, global = 4.03544e-06, cumulative = 0.00049101
DICPCG:  Solving for p_rgh, Initial residual = 6.52208e-05, Final residual = 7.89144e-08, No Iterations 47
time step continuity errors : sum local = 7.75138e-08, global = -2.44408e-09, cumulative = 0.000491008
ExecutionTime = 0.2 s  ClockTime = 0 s

Courant Number mean: 0.0838809 max: 1.0505
Interface Courant Number mean: 0.00755266 max: 0.910037
deltaT = 0.00231481
Time = 0.0953704

PIMPLE: iteration 1
smoothSolver:  Solving for alpha.water, Initial residual = 0.00348435, Final residual = 2.68503e-09, No Iterations 3
Phase-1 volume fraction = 0.130194  Min(alpha.water) = -5.86592e-12  Max(alpha.water) = 1
MULES: Correcting alpha.water
MULES: Correcting alpha.water
Phase-1 volume fraction = 0.130194  Min(alpha.water) = -4.99211e-09  Max(alpha.water) = 1
DICPCG:  Solving for p_rgh, Initial residual = 0.0387852, Final residual = 0.000535231, No Iterations 1
time step continuity errors : sum local = 0.000547777, global = -2.47991e-08, cumulative = 0.000490983
DICPCG:  Solving for p_rgh, Initial residual = 0.000600374, Final residual = 2.41259e-05, No Iterations 12
time step continuity errors : sum local = 2.38286e-05, global = 3.62187e-06, cumulative = 0.000494605
DICPCG:  Solving for p_rgh, Initial residual = 6.71964e-05, Final residual = 9.53596e-08, No Iterations 46
time step continuity errors : sum local = 9.50785e-08, global = -2.0963e-09, cumulative = 0.000494603
ExecutionTime = 0.21 s  ClockTime = 0 s

Courant Number mean: 0.0856524 max: 1.10769
Interface Courant Number mean: 0.00774914 max: 1.01129
deltaT = 0.00231481
Time = 0.0976852

PIMPLE: iteration 1
smoothSolver:  Solving for alpha.water, Initial residual = 0.00358218, Final residual = 3.18821e-09, No Iterations 3
Phase-1 volume fraction = 0.130194  Min(alpha.water) = -4.55079e-12  Max(alpha.water) = 1
MULES: Correcting alpha.water
MULES: Correcting alpha.water
Phase-1 volume fraction = 0.130194  Min(alpha.water) = -2.0563e-09  Max(alpha.water) = 1
DICPCG:  Solving for p_rgh, Initial residual = 0.0359105, Final residual = 0.000711339, No Iterations 1
time step continuity errors : sum local = 0.000686562, global = -1.49789e-08, cumulative = 0.000494588
DICPCG:  Solving for p_rgh, Initial residual = 0.000787613, Final residual = 2.97303e-05, No Iterations 12
time step continuity errors : sum local = 2.77644e-05, global = 4.87269e-06, cumulative = 0.00049946
DICPCG:  Solving for p_rgh, Initial residual = 8.77641e-05, Final residual = 9.23975e-08, No Iterations 47
time step continuity errors : sum local = 8.71378e-08, global = -2.1404e-09, cumulative = 0.000499458
ExecutionTime = 0.22 s  ClockTime = 0 s

Courant Number mean: 0.087452 max: 1.14507
Interface Courant Number mean: 0.0078258 max: 1.00073
deltaT = 0.00231481
Time = 0.1

PIMPLE: iteration 1
smoothSolver:  Solving for alpha.water, Initial residual = 0.00367954, Final residual = 3.65954e-09, No Iterations 3
Phase-1 volume fraction = 0.130194  Min(alpha.water) = -4.08551e-12  Max(alpha.water) = 1
MULES: Correcting alpha.water
MULES: Correcting alpha.water
Phase-1 volume fraction = 0.130194  Min(alpha.water) = -9.87424e-12  Max(alpha.water) = 1
DICPCG:  Solving for p_rgh, Initial residual = 0.0331825, Final residual = 0.000864704, No Iterations 1
time step continuity errors : sum local = 0.00079374, global = -3.03079e-08, cumulative = 0.000499428
DICPCG:  Solving for p_rgh, Initial residual = 0.000958524, Final residual = 3.64076e-05, No Iterations 12
time step continuity errors : sum local = 3.24513e-05, global = 5.62531e-06, cumulative = 0.000505053
DICPCG:  Solving for p_rgh, Initial residual = 0.000111295, Final residual = 8.04327e-08, No Iterations 48
time step continuity errors : sum local = 7.24339e-08, global = -1.00534e-09, cumulative = 0.000505052
ExecutionTime = 0.23 s  ClockTime = 0 s

Courant Number mean: 0.0893539 max: 1.1457
Interface Courant Number mean: 0.00837579 max: 1.06357
deltaT = 0.00208333
Time = 0.102083

PIMPLE: iteration 1
smoothSolver:  Solving for alpha.water, Initial residual = 0.00339179, Final residual = 2.35121e-09, No Iterations 3
Phase-1 volume fraction = 0.130194  Min(alpha.water) = -3.64143e-12  Max(alpha.water) = 1
MULES: Correcting alpha.water
MULES: Correcting alpha.water
Phase-1 volume fraction = 0.130194  Min(alpha.water) = -5.15157e-12  Max(alpha.water) = 1
DICPCG:  Solving for p_rgh, Initial residual = 0.0293309, Final residual = 0.000729872, No Iterations 1
time step continuity errors : sum local = 0.000542353, global = -3.75259e-08, cumulative = 0.000505015
DICPCG:  Solving for p_rgh, Initial residual = 0.000806933, Final residual = 3.90459e-05, No Iterations 11
time step continuity errors : sum local = 2.8303e-05, global = 4.303e-06, cumulative = 0.000509318
DICPCG:  Solving for p_rgh, Initial residual = 8.97038e-05, Final residual = 9.8763e-08, No Iterations 46
time step continuity errors : sum local = 7.22572e-08, global = -5.33032e-09, cumulative = 0.000509312
ExecutionTime = 0.24 s  ClockTime = 0 s

Courant Number mean: 0.0818629 max: 1.0163
Interface Courant Number mean: 0.00811525 max: 1.0163
deltaT = 0.00208333
Time = 0.104167

PIMPLE: iteration 1
smoothSolver:  Solving for alpha.water, Initial residual = 0.00344053, Final residual = 2.61532e-09, No Iterations 3
Phase-1 volume fraction = 0.130194  Min(alpha.water) = -3.16503e-12  Max(alpha.water) = 1
MULES: Correcting alpha.water
MULES: Correcting alpha.water
Phase-1 volume fraction = 0.130194  Min(alpha.water) = -1.81859e-11  Max(alpha.water) = 1
DICPCG:  Solving for p_rgh, Initial residual = 0.0287265, Final residual = 0.000694442, No Iterations 1
time step continuity errors : sum local = 0.000516805, global = -4.57987e-08, cumulative = 0.000509267
DICPCG:  Solving for p_rgh, Initial residual = 0.000772544, Final residual = 2.6171e-05, No Iterations 12
time step continuity errors : sum local = 1.90052e-05, global = 4.20338e-06, cumulative = 0.00051347
DICPCG:  Solving for p_rgh, Initial residual = 7.64477e-05, Final residual = 9.04407e-08, No Iterations 45
time step continuity errors : sum local = 6.62817e-08, global = -8.61792e-09, cumulative = 0.000513461
ExecutionTime = 0.24 s  ClockTime = 0 s

Courant Number mean: 0.0831858 max: 1.0003
Interface Courant Number mean: 0.00786715 max: 1.0003
deltaT = 0.00208333
Time = 0.10625

PIMPLE: iteration 1
smoothSolver:  Solving for alpha.water, Initial residual = 0.00349909, Final residual = 2.9437e-09, No Iterations 3
Phase-1 volume fraction = 0.130194  Min(alpha.water) = -2.64962e-12  Max(alpha.water) = 1
MULES: Correcting alpha.water
MULES: Correcting alpha.water
Phase-1 volume fraction = 0.130194  Min(alpha.water) = -1.46479e-10  Max(alpha.water) = 1
DICPCG:  Solving for p_rgh, Initial residual = 0.0284661, Final residual = 0.00069892, No Iterations 1
time step continuity errors : sum local = 0.000524378, global = -5.29921e-08, cumulative = 0.000513408
DICPCG:  Solving for p_rgh, Initial residual = 0.000782111, Final residual = 2.52364e-05, No Iterations 12
time step continuity errors : sum local = 1.84837e-05, global = 4.01317e-06, cumulative = 0.000517422
DICPCG:  Solving for p_rgh, Initial residual = 7.76496e-05, Final residual = 8.68696e-08, No Iterations 45
time step continuity errors : sum local = 6.42081e-08, global = -7.6593e-09, cumulative = 0.000517414
ExecutionTime = 0.25 s  ClockTime = 0 s

Courant Number mean: 0.0844717 max: 0.992083
Interface Courant Number mean: 0.00771243 max: 0.992083
deltaT = 0.00208333
Time = 0.108333

PIMPLE: iteration 1
smoothSolver:  Solving for alpha.water, Initial residual = 0.00358781, Final residual = 3.13102e-09, No Iterations 3
Phase-1 volume fraction = 0.130194  Min(alpha.water) = -2.10521e-12  Max(alpha.water) = 1
MULES: Correcting alpha.water
MULES: Correcting alpha.water
Phase-1 volume fraction = 0.130194  Min(alpha.water) = -1.2845e-10  Max(alpha.water) = 1
DICPCG:  Solving for p_rgh, Initial residual = 0.0287848, Final residual = 0.00069062, No Iterations 1
time step continuity errors : sum local = 0.00053052, global = -4.21879e-08, cumulative = 0.000517372
DICPCG:  Solving for p_rgh, Initial residual = 0.000773979, Final residual = 3.75974e-05, No Iterations 11
time step continuity errors : sum local = 2.82133e-05, global = 3.86653e-06, cumulative = 0.000521238
DICPCG:  Solving for p_rgh, Initial residual = 8.97403e-05, Final residual = 8.84686e-08, No Iterations 45
time step continuity errors : sum local = 6.69723e-08, global = -6.73764e-09, cumulative = 0.000521231
ExecutionTime = 0.25 s  ClockTime = 0 s

Courant Number mean: 0.0857807 max: 0.989619
Interface Courant Number mean: 0.00792936 max: 0.989619
deltaT = 0.00208333
Time = 0.110417

PIMPLE: iteration 1
smoothSolver:  Solving for alpha.water, Initial residual = 0.00367053, Final residual = 3.5401e-09, No Iterations 3
Phase-1 volume fraction = 0.130194  Min(alpha.water) = -1.51117e-12  Max(alpha.water) = 1
MULES: Correcting alpha.water
MULES: Correcting alpha.water
Phase-1 volume fraction = 0.130194  Min(alpha.water) = -2.80393e-10  Max(alpha.water) = 1
DICPCG:  Solving for p_rgh, Initial residual = 0.0308132, Final residual = 0.000580337, No Iterations 1
time step continuity errors : sum local = 0.000473079, global = -3.87064e-08, cumulative = 0.000521193
DICPCG:  Solving for p_rgh, Initial residual = 0.000657559, Final residual = 2.66141e-05, No Iterations 12
time step continuity errors : sum local = 2.10929e-05, global = 3.13507e-06, cumulative = 0.000524328
DICPCG:  Solving for p_rgh, Initial residual = 7.82341e-05, Final residual = 8.56469e-08, No Iterations 46
time step continuity errors : sum local = 6.84632e-08, global = -5.39511e-09, cumulative = 0.000524322
ExecutionTime = 0.26 s  ClockTime = 0 s

Courant Number mean: 0.0871375 max: 0.99816
Interface Courant Number mean: 0.00841384 max: 0.99816
deltaT = 0.00208333
Time = 0.1125

PIMPLE: iteration 1
smoothSolver:  Solving for alpha.water, Initial residual = 0.00372059, Final residual = 3.97224e-09, No Iterations 3
Phase-1 volume fraction = 0.130194  Min(alpha.water) = -1.26105e-12  Max(alpha.water) = 1
MULES: Correcting alpha.water
MULES: Correcting alpha.water
Phase-1 volume fraction = 0.130194  Min(alpha.water) = -4.04879e-11  Max(alpha.water) = 1
DICPCG:  Solving for p_rgh, Initial residual = 0.0355851, Final residual = 0.00062975, No Iterations 1
time step continuity errors : sum local = 0.000525857, global = -2.07674e-08, cumulative = 0.000524302
DICPCG:  Solving for p_rgh, Initial residual = 0.000724923, Final residual = 2.81353e-05, No Iterations 12
time step continuity errors : sum local = 2.27214e-05, global = 3.27097e-06, cumulative = 0.000527573
DICPCG:  Solving for p_rgh, Initial residual = 8.58175e-05, Final residual = 8.30623e-08, No Iterations 46
time step continuity errors : sum local = 6.7646e-08, global = -5.62591e-09, cumulative = 0.000527567
ExecutionTime = 0.27 s  ClockTime = 0 s

Courant Number mean: 0.0885521 max: 1.03038
Interface Courant Number mean: 0.00820204 max: 1.03038
deltaT = 0.00208333
Time = 0.114583

PIMPLE: iteration 1
smoothSolver:  Solving for alpha.water, Initial residual = 0.00377767, Final residual = 4.24283e-09, No Iterations 3
Phase-1 volume fraction = 0.130194  Min(alpha.water) = -1.08916e-12  Max(alpha.water) = 1
MULES: Correcting alpha.water
MULES: Correcting alpha.water
Phase-1 volume fraction = 0.130194  Min(alpha.water) = -3.21995e-11  Max(alpha.water) = 1
DICPCG:  Solving for p_rgh, Initial residual = 0.0320511, Final residual = 0.000700725, No Iterations 1
time step continuity errors : sum local = 0.000556816, global = -2.26915e-08, cumulative = 0.000527544
DICPCG:  Solving for p_rgh, Initial residual = 0.000796028, Final residual = 2.97719e-05, No Iterations 12
time step continuity errors : sum local = 2.29901e-05, global = 4.04068e-06, cumulative = 0.000531585
DICPCG:  Solving for p_rgh, Initial residual = 9.21237e-05, Final residual = 8.95047e-08, No Iterations 46
time step continuity errors : sum local = 6.97029e-08, global = -5.79974e-09, cumulative = 0.000531579
ExecutionTime = 0.27 s  ClockTime = 0 s

Courant Number mean: 0.0898916 max: 1.08571
Interface Courant Number mean: 0.00812792 max: 1.08571
deltaT = 0.00208333
Time = 0.116667

PIMPLE: iteration 1
smoothSolver:  Solving for alpha.water, Initial residual = 0.00385799, Final residual = 4.4063e-09, No Iterations 3
Phase-1 volume fraction = 0.130194  Min(alpha.water) = -8.87522e-13  Max(alpha.water) = 1
MULES: Correcting alpha.water
MULES: Correcting alpha.water
Phase-1 volume fraction = 0.130194  Min(alpha.water) = -8.62379e-12  Max(alpha.water) = 1
DICPCG:  Solving for p_rgh, Initial residual = 0.0305755, Final residual = 0.000617007, No Iterations 1
time step continuity errors : sum local = 0.000480468, global = -4.24735e-08, cumulative = 0.000531537
DICPCG:  Solving for p_rgh, Initial residual = 0.000711671, Final residual = 2.66214e-05, No Iterations 12
time step continuity errors : sum local = 2.01607e-05, global = 3.38728e-06, cumulative = 0.000534924
DICPCG:  Solving for p_rgh, Initial residual = 8.24615e-05, Final residual = 9.49664e-08, No Iterations 45
time step continuity errors : sum local = 7.26028e-08, global = -2.86632e-10, cumulative = 0.000534924
ExecutionTime = 0.27 s  ClockTime = 0 s

Courant Number mean: 0.091079 max: 1.15478
Interface Courant Number mean: 0.00828712 max: 1.15478
deltaT = 0.00166667
Time = 0.118333

PIMPLE: iteration 1
smoothSolver:  Solving for alpha.water, Initial residual = 0.00313589, Final residual = 1.32109e-09, No Iterations 3
Phase-1 volume fraction = 0.130194  Min(alpha.water) = -7.30026e-13  Max(alpha.water) = 1
MULES: Correcting alpha.water
MULES: Correcting alpha.water
Phase-1 volume fraction = 0.130194  Min(alpha.water) = -4.57516e-12  Max(alpha.water) = 1
DICPCG:  Solving for p_rgh, Initial residual = 0.0252762, Final residual = 0.000547131, No Iterations 1
time step continuity errors : sum local = 0.000274637, global = -2.92473e-08, cumulative = 0.000534894
DICPCG:  Solving for p_rgh, Initial residual = 0.000614564, Final residual = 2.02082e-05, No Iterations 12
time step continuity errors : sum local = 9.92507e-06, global = 1.80334e-06, cumulative = 0.000536698
DICPCG:  Solving for p_rgh, Initial residual = 5.67834e-05, Final residual = 8.61803e-08, No Iterations 45
time step continuity errors : sum local = 4.26567e-08, global = -2.59232e-09, cumulative = 0.000536695
ExecutionTime = 0.28 s  ClockTime = 0 s

Courant Number mean: 0.0735272 max: 0.961081
Interface Courant Number mean: 0.00666223 max: 0.92142
deltaT = 0.00166667
Time = 0.12

PIMPLE: iteration 1
smoothSolver:  Solving for alpha.water, Initial residual = 0.00316969, Final residual = 1.32746e-09, No Iterations 3
Phase-1 volume fraction = 0.130194  Min(alpha.water) = -5.64377e-13  Max(alpha.water) = 1
MULES: Correcting alpha.water
MULES: Correcting alpha.water
Phase-1 volume fraction = 0.130194  Min(alpha.water) = -7.21218e-12  Max(alpha.water) = 1
DICPCG:  Solving for p_rgh, Initial residual = 0.02455, Final residual = 0.000594964, No Iterations 1
time step continuity errors : sum local = 0.000297554, global = -2.09085e-08, cumulative = 0.000536674
DICPCG:  Solving for p_rgh, Initial residual = 0.000670417, Final residual = 2.54295e-05, No Iterations 12
time step continuity errors : sum local = 1.246e-05, global = 1.78392e-06, cumulative = 0.000538458
DICPCG:  Solving for p_rgh, Initial residual = 6.76263e-05, Final residual = 7.75189e-08, No Iterations 45
time step continuity errors : sum local = 3.82871e-08, global = -4.32631e-09, cumulative = 0.000538454
ExecutionTime = 0.28 s  ClockTime = 0 s

Courant Number mean: 0.0742096 max: 1.00264
Interface Courant Number mean: 0.00626328 max: 0.951005
deltaT = 0.00166667
Time = 0.121667

PIMPLE: iteration 1
smoothSolver:  Solving for alpha.water, Initial residual = 0.00318842, Final residual = 1.34749e-09, No Iterations 3
Phase-1 volume fraction = 0.130194  Min(alpha.water) = -4.3113e-13  Max(alpha.water) = 1
MULES: Correcting alpha.water
MULES: Correcting alpha.water
Phase-1 volume fraction = 0.130194  Min(alpha.water) = -5.10583e-12  Max(alpha.water) = 1
DICPCG:  Solving for p_rgh, Initial residual = 0.0236157, Final residual = 0.000640684, No Iterations 1
time step continuity errors : sum local = 0.000320169, global = -1.8516e-08, cumulative = 0.000538435
DICPCG:  Solving for p_rgh, Initial residual = 0.000728623, Final residual = 3.58056e-05, No Iterations 11
time step continuity errors : sum local = 1.7564e-05, global = 1.45096e-06, cumulative = 0.000539886
DICPCG:  Solving for p_rgh, Initial residual = 8.31725e-05, Final residual = 8.8391e-08, No Iterations 44
time step continuity errors : sum local = 4.36858e-08, global = -3.1119e-09, cumulative = 0.000539883
ExecutionTime = 0.29 s  ClockTime = 0 s

Courant Number mean: 0.0749172 max: 1.04769
Interface Courant Number mean: 0.006338 max: 0.975658
deltaT = 0.00166667
Time = 0.123333

PIMPLE: iteration 1
smoothSolver:  Solving for alpha.water, Initial residual = 0.0032379, Final residual = 1.3447e-09, No Iterations 3
Phase-1 volume fraction = 0.130194  Min(alpha.water) = -4.23192e-13  Max(alpha.water) = 1
MULES: Correcting alpha.water
MULES: Correcting alpha.water
Phase-1 volume fraction = 0.130194  Min(alpha.water) = -4.17597e-12  Max(alpha.water) = 1
DICPCG:  Solving for p_rgh, Initial residual = 0.022206, Final residual = 0.000631229, No Iterations 1
time step continuity errors : sum local = 0.000317433, global = -1.00093e-08, cumulative = 0.000539873
DICPCG:  Solving for p_rgh, Initial residual = 0.000731215, Final residual = 2.98815e-05, No Iterations 12
time step continuity errors : sum local = 1.47731e-05, global = 1.66481e-06, cumulative = 0.000541538
DICPCG:  Solving for p_rgh, Initial residual = 7.92145e-05, Final residual = 9.39533e-08, No Iterations 43
time step continuity errors : sum local = 4.68546e-08, global = -2.4618e-09, cumulative = 0.000541536
ExecutionTime = 0.31 s  ClockTime = 0 s

Courant Number mean: 0.0756971 max: 1.09223
Interface Courant Number mean: 0.00641024 max: 1.066
deltaT = 0.00166667
Time = 0.125

PIMPLE: iteration 1
smoothSolver:  Solving for alpha.water, Initial residual = 0.00328303, Final residual = 1.35406e-09, No Iterations 3
Phase-1 volume fraction = 0.130194  Min(alpha.water) = -4.09779e-13  Max(alpha.water) = 1
MULES: Correcting alpha.water
MULES: Correcting alpha.water
Phase-1 volume fraction = 0.130194  Min(alpha.water) = -2.32523e-12  Max(alpha.water) = 1
DICPCG:  Solving for p_rgh, Initial residual = 0.0239778, Final residual = 0.000659785, No Iterations 1
time step continuity errors : sum local = 0.000342745, global = -8.23626e-09, cumulative = 0.000541527
DICPCG:  Solving for p_rgh, Initial residual = 0.000769177, Final residual = 3.80985e-05, No Iterations 7
time step continuity errors : sum local = 1.94458e-05, global = 6.44998e-08, cumulative = 0.000541592
DICPCG:  Solving for p_rgh, Initial residual = 8.56177e-05, Final residual = 8.98967e-08, No Iterations 46
time step continuity errors : sum local = 4.616e-08, global = 2.52221e-09, cumulative = 0.000541594
ExecutionTime = 0.31 s  ClockTime = 0 s

Courant Number mean: 0.0764458 max: 1.13606
Interface Courant Number mean: 0.00635962 max: 1.09371
deltaT = 0.00147059
Time = 0.126471

PIMPLE: iteration 1
smoothSolver:  Solving for alpha.water, Initial residual = 0.00293153, Final residual = 6.68408e-10, No Iterations 3
Phase-1 volume fraction = 0.130194  Min(alpha.water) = -3.93617e-13  Max(alpha.water) = 1
MULES: Correcting alpha.water
MULES: Correcting alpha.water
Phase-1 volume fraction = 0.130194  Min(alpha.water) = -5.80784e-10  Max(alpha.water) = 1
DICPCG:  Solving for p_rgh, Initial residual = 0.0219868, Final residual = 0.000499613, No Iterations 1
time step continuity errors : sum local = 0.000213288, global = 5.46838e-09, cumulative = 0.0005416
DICPCG:  Solving for p_rgh, Initial residual = 0.000580138, Final residual = 2.59053e-05, No Iterations 8
time step continuity errors : sum local = 1.08802e-05, global = 4.26909e-08, cumulative = 0.000541643
DICPCG:  Solving for p_rgh, Initial residual = 6.85219e-05, Final residual = 9.90703e-08, No Iterations 43
time step continuity errors : sum local = 4.18652e-08, global = 3.56107e-09, cumulative = 0.000541646
ExecutionTime = 0.31 s  ClockTime = 0 s

Courant Number mean: 0.0680013 max: 1.02514
Interface Courant Number mean: 0.0054892 max: 0.969912
deltaT = 0.00147059
Time = 0.127941

PIMPLE: iteration 1
smoothSolver:  Solving for alpha.water, Initial residual = 0.00297162, Final residual = 6.77037e-10, No Iterations 3
Phase-1 volume fraction = 0.130194  Min(alpha.water) = -3.7353e-13  Max(alpha.water) = 1
MULES: Correcting alpha.water
MULES: Correcting alpha.water
Phase-1 volume fraction = 0.130194  Min(alpha.water) = -1.21404e-10  Max(alpha.water) = 1
DICPCG:  Solving for p_rgh, Initial residual = 0.0258176, Final residual = 0.000428817, No Iterations 1
time step continuity errors : sum local = 0.000193268, global = 7.90549e-09, cumulative = 0.000541654
DICPCG:  Solving for p_rgh, Initial residual = 0.000505581, Final residual = 2.50283e-05, No Iterations 8
time step continuity errors : sum local = 1.10405e-05, global = 3.62593e-08, cumulative = 0.00054169
DICPCG:  Solving for p_rgh, Initial residual = 6.90971e-05, Final residual = 9.51407e-08, No Iterations 45
time step continuity errors : sum local = 4.22626e-08, global = 3.77875e-09, cumulative = 0.000541694
ExecutionTime = 0.32 s  ClockTime = 0 s

Courant Number mean: 0.0685293 max: 1.03676
Interface Courant Number mean: 0.00568939 max: 0.955587
deltaT = 0.00137868
Time = 0.12932

PIMPLE: iteration 1
smoothSolver:  Solving for alpha.water, Initial residual = 0.00280397, Final residual = 4.71103e-10, No Iterations 3
Phase-1 volume fraction = 0.130194  Min(alpha.water) = -3.51513e-13  Max(alpha.water) = 1
MULES: Correcting alpha.water
MULES: Correcting alpha.water
Phase-1 volume fraction = 0.130194  Min(alpha.water) = -5.99502e-13  Max(alpha.water) = 1
DICPCG:  Solving for p_rgh, Initial residual = 0.0227096, Final residual = 0.000440245, No Iterations 1
time step continuity errors : sum local = 0.000170415, global = 2.52419e-09, cumulative = 0.000541697
DICPCG:  Solving for p_rgh, Initial residual = 0.000521133, Final residual = 2.55934e-05, No Iterations 9
time step continuity errors : sum local = 9.73009e-06, global = 8.78108e-08, cumulative = 0.000541784
DICPCG:  Solving for p_rgh, Initial residual = 6.84899e-05, Final residual = 9.35556e-08, No Iterations 45
time step continuity errors : sum local = 3.58484e-08, global = -6.97756e-10, cumulative = 0.000541784
ExecutionTime = 0.33 s  ClockTime = 0 s

Courant Number mean: 0.0647087 max: 0.96197
Interface Courant Number mean: 0.00541967 max: 0.96197
deltaT = 0.00147715
Time = 0.130797

PIMPLE: iteration 1
smoothSolver:  Solving for alpha.water, Initial residual = 0.00306757, Final residual = 7.1297e-10, No Iterations 3
Phase-1 volume fraction = 0.130194  Min(alpha.water) = -3.23867e-13  Max(alpha.water) = 1
MULES: Correcting alpha.water
MULES: Correcting alpha.water
Phase-1 volume fraction = 0.130194  Min(alpha.water) = -1.18105e-12  Max(alpha.water) = 1
DICPCG:  Solving for p_rgh, Initial residual = 0.0240686, Final residual = 0.000508971, No Iterations 1
time step continuity errors : sum local = 0.00022183, global = -4.99649e-09, cumulative = 0.000541779
DICPCG:  Solving for p_rgh, Initial residual = 0.000631115, Final residual = 3.14352e-05, No Iterations 12
time step continuity errors : sum local = 1.34324e-05, global = 7.16072e-07, cumulative = 0.000542495
DICPCG:  Solving for p_rgh, Initial residual = 0.000106053, Final residual = 8.63656e-08, No Iterations 49
time step continuity errors : sum local = 3.72634e-08, global = -9.57498e-10, cumulative = 0.000542494
ExecutionTime = 0.33 s  ClockTime = 0 s

Courant Number mean: 0.0699292 max: 0.987886
Interface Courant Number mean: 0.00580663 max: 0.987886
deltaT = 0.00147715
Time = 0.132274

PIMPLE: iteration 1
smoothSolver:  Solving for alpha.water, Initial residual = 0.00309339, Final residual = 7.09588e-10, No Iterations 3
Phase-1 volume fraction = 0.130194  Min(alpha.water) = -2.92032e-13  Max(alpha.water) = 1
MULES: Correcting alpha.water
MULES: Correcting alpha.water
Phase-1 volume fraction = 0.130194  Min(alpha.water) = -2.0624e-11  Max(alpha.water) = 1
DICPCG:  Solving for p_rgh, Initial residual = 0.0213863, Final residual = 0.000561898, No Iterations 1
time step continuity errors : sum local = 0.000238697, global = -7.53234e-09, cumulative = 0.000542486
DICPCG:  Solving for p_rgh, Initial residual = 0.00068398, Final residual = 3.38909e-05, No Iterations 12
time step continuity errors : sum local = 1.41482e-05, global = 7.58159e-07, cumulative = 0.000543244
DICPCG:  Solving for p_rgh, Initial residual = 0.000109146, Final residual = 8.15738e-08, No Iterations 49
time step continuity errors : sum local = 3.43904e-08, global = -6.79288e-10, cumulative = 0.000543244
ExecutionTime = 0.34 s  ClockTime = 0 s

Courant Number mean: 0.0705504 max: 0.928028
Interface Courant Number mean: 0.0066179 max: 0.928028
deltaT = 0.00161144
Time = 0.133886

PIMPLE: iteration 1
smoothSolver:  Solving for alpha.water, Initial residual = 0.00339633, Final residual = 1.16737e-09, No Iterations 3
Phase-1 volume fraction = 0.130194  Min(alpha.water) = -2.53011e-13  Max(alpha.water) = 1
MULES: Correcting alpha.water
MULES: Correcting alpha.water
Phase-1 volume fraction = 0.130194  Min(alpha.water) = -7.77222e-11  Max(alpha.water) = 1
DICPCG:  Solving for p_rgh, Initial residual = 0.0228447, Final residual = 0.000673925, No Iterations 1
time step continuity errors : sum local = 0.000336183, global = -4.19595e-09, cumulative = 0.00054324
DICPCG:  Solving for p_rgh, Initial residual = 0.000787202, Final residual = 3.66309e-05, No Iterations 13
time step continuity errors : sum local = 1.79833e-05, global = 1.30341e-06, cumulative = 0.000544543
DICPCG:  Solving for p_rgh, Initial residual = 0.000121421, Final residual = 7.07382e-08, No Iterations 50
time step continuity errors : sum local = 3.52226e-08, global = -2.25515e-09, cumulative = 0.000544541
ExecutionTime = 0.36 s  ClockTime = 0 s

Courant Number mean: 0.0777075 max: 0.945939
Interface Courant Number mean: 0.00692084 max: 0.945939
deltaT = 0.00179049
Time = 0.135676

PIMPLE: iteration 1
smoothSolver:  Solving for alpha.water, Initial residual = 0.00384547, Final residual = 2.15256e-09, No Iterations 3
Phase-1 volume fraction = 0.130194  Min(alpha.water) = -2.03023e-13  Max(alpha.water) = 1
MULES: Correcting alpha.water
MULES: Correcting alpha.water
Phase-1 volume fraction = 0.130194  Min(alpha.water) = -1.06881e-10  Max(alpha.water) = 1
DICPCG:  Solving for p_rgh, Initial residual = 0.0238059, Final residual = 0.000676687, No Iterations 1
time step continuity errors : sum local = 0.000415889, global = -1.28066e-08, cumulative = 0.000544528
DICPCG:  Solving for p_rgh, Initial residual = 0.000809356, Final residual = 3.98326e-05, No Iterations 13
time step continuity errors : sum local = 2.40708e-05, global = 1.57317e-06, cumulative = 0.000546101
DICPCG:  Solving for p_rgh, Initial residual = 0.000135605, Final residual = 9.81061e-08, No Iterations 37
time step continuity errors : sum local = 6.02397e-08, global = 8.63481e-09, cumulative = 0.00054611
ExecutionTime = 0.36 s  ClockTime = 0 s

Courant Number mean: 0.08724 max: 1.00159
Interface Courant Number mean: 0.00747251 max: 1.00159
deltaT = 0.00179049
Time = 0.137467

PIMPLE: iteration 1
smoothSolver:  Solving for alpha.water, Initial residual = 0.00386365, Final residual = 2.1887e-09, No Iterations 3
Phase-1 volume fraction = 0.130194  Min(alpha.water) = -1.63e-13  Max(alpha.water) = 1
MULES: Correcting alpha.water
MULES: Correcting alpha.water
Phase-1 volume fraction = 0.130194  Min(alpha.water) = -2.56305e-11  Max(alpha.water) = 1
DICPCG:  Solving for p_rgh, Initial residual = 0.0234032, Final residual = 0.000640925, No Iterations 1
time step continuity errors : sum local = 0.000399194, global = 8.91131e-09, cumulative = 0.000546119
DICPCG:  Solving for p_rgh, Initial residual = 0.000759009, Final residual = 2.39104e-05, No Iterations 14
time step continuity errors : sum local = 1.46451e-05, global = 1.71917e-06, cumulative = 0.000547838
DICPCG:  Solving for p_rgh, Initial residual = 0.000110059, Final residual = 8.21064e-08, No Iterations 49
time step continuity errors : sum local = 5.10934e-08, global = 1.43505e-10, cumulative = 0.000547838
ExecutionTime = 0.37 s  ClockTime = 0 s

Courant Number mean: 0.0880496 max: 0.966847
Interface Courant Number mean: 0.00801605 max: 0.966847
deltaT = 0.00179049
Time = 0.139257

PIMPLE: iteration 1
smoothSolver:  Solving for alpha.water, Initial residual = 0.00391114, Final residual = 2.21972e-09, No Iterations 3
Phase-1 volume fraction = 0.130194  Min(alpha.water) = -1.51158e-13  Max(alpha.water) = 1
MULES: Correcting alpha.water
MULES: Correcting alpha.water
Phase-1 volume fraction = 0.130194  Min(alpha.water) = -5.6303e-12  Max(alpha.water) = 1
DICPCG:  Solving for p_rgh, Initial residual = 0.0230416, Final residual = 0.00064452, No Iterations 1
time step continuity errors : sum local = 0.000410295, global = -2.79008e-08, cumulative = 0.00054781
DICPCG:  Solving for p_rgh, Initial residual = 0.000754796, Final residual = 3.76709e-05, No Iterations 13
time step continuity errors : sum local = 2.36097e-05, global = 1.6205e-06, cumulative = 0.00054943
DICPCG:  Solving for p_rgh, Initial residual = 0.000123624, Final residual = 9.49064e-08, No Iterations 45
time step continuity errors : sum local = 6.05122e-08, global = -2.94431e-09, cumulative = 0.000549428
ExecutionTime = 0.37 s  ClockTime = 0 s

Courant Number mean: 0.0887341 max: 0.941431
Interface Courant Number mean: 0.00810328 max: 0.941431
deltaT = 0.00179049
Time = 0.141048

PIMPLE: iteration 1
smoothSolver:  Solving for alpha.water, Initial residual = 0.0039756, Final residual = 2.26455e-09, No Iterations 3
Phase-1 volume fraction = 0.130194  Min(alpha.water) = -1.3676e-13  Max(alpha.water) = 1
MULES: Correcting alpha.water
MULES: Correcting alpha.water
Phase-1 volume fraction = 0.130194  Min(alpha.water) = -1.60694e-11  Max(alpha.water) = 1
DICPCG:  Solving for p_rgh, Initial residual = 0.0228027, Final residual = 0.000607309, No Iterations 1
time step continuity errors : sum local = 0.000395264, global = -2.35946e-08, cumulative = 0.000549404
DICPCG:  Solving for p_rgh, Initial residual = 0.000702912, Final residual = 3.38219e-05, No Iterations 13
time step continuity errors : sum local = 2.16561e-05, global = 1.78628e-06, cumulative = 0.00055119
DICPCG:  Solving for p_rgh, Initial residual = 0.000113884, Final residual = 7.96975e-08, No Iterations 48
time step continuity errors : sum local = 5.17562e-08, global = -3.116e-09, cumulative = 0.000551187
ExecutionTime = 0.38 s  ClockTime = 0 s

Courant Number mean: 0.0893075 max: 0.941778
Interface Courant Number mean: 0.00852744 max: 0.941778
deltaT = 0.00179049
Time = 0.142838

PIMPLE: iteration 1
smoothSolver:  Solving for alpha.water, Initial residual = 0.00409515, Final residual = 2.29125e-09, No Iterations 3
Phase-1 volume fraction = 0.130194  Min(alpha.water) = -1.19528e-13  Max(alpha.water) = 1
MULES: Correcting alpha.water
MULES: Correcting alpha.water
Phase-1 volume fraction = 0.130194  Min(alpha.water) = -8.86855e-12  Max(alpha.water) = 1
DICPCG:  Solving for p_rgh, Initial residual = 0.0223804, Final residual = 0.000549064, No Iterations 1
time step continuity errors : sum local = 0.00036916, global = -2.45006e-08, cumulative = 0.000551163
DICPCG:  Solving for p_rgh, Initial residual = 0.000643354, Final residual = 2.53202e-05, No Iterations 14
time step continuity errors : sum local = 1.67391e-05, global = 1.27011e-06, cumulative = 0.000552433
DICPCG:  Solving for p_rgh, Initial residual = 0.000103902, Final residual = 7.68024e-08, No Iterations 48
time step continuity errors : sum local = 5.16627e-08, global = -4.70481e-09, cumulative = 0.000552428
ExecutionTime = 0.39 s  ClockTime = 0 s

Courant Number mean: 0.0898109 max: 0.93662
Interface Courant Number mean: 0.00902453 max: 0.93662
deltaT = 0.00179049
Time = 0.144629

PIMPLE: iteration 1
smoothSolver:  Solving for alpha.water, Initial residual = 0.00414175, Final residual = 2.28828e-09, No Iterations 3
Phase-1 volume fraction = 0.130194  Min(alpha.water) = -1.01407e-13  Max(alpha.water) = 1
MULES: Correcting alpha.water
MULES: Correcting alpha.water
Phase-1 volume fraction = 0.130194  Min(alpha.water) = -6.40665e-10  Max(alpha.water) = 1
DICPCG:  Solving for p_rgh, Initial residual = 0.0252851, Final residual = 0.000549829, No Iterations 1
time step continuity errors : sum local = 0.000386219, global = -1.749e-08, cumulative = 0.000552411
DICPCG:  Solving for p_rgh, Initial residual = 0.000639952, Final residual = 2.25206e-05, No Iterations 14
time step continuity errors : sum local = 1.54944e-05, global = 1.31642e-06, cumulative = 0.000553727
DICPCG:  Solving for p_rgh, Initial residual = 9.84745e-05, Final residual = 8.28678e-08, No Iterations 47
time step continuity errors : sum local = 5.78243e-08, global = -4.74321e-09, cumulative = 0.000553722
ExecutionTime = 0.39 s  ClockTime = 0 s

Courant Number mean: 0.0902171 max: 0.923388
Interface Courant Number mean: 0.00963733 max: 0.923388
deltaT = 0.00179049
Time = 0.146419

PIMPLE: iteration 1
smoothSolver:  Solving for alpha.water, Initial residual = 0.0041689, Final residual = 2.26552e-09, No Iterations 3
Phase-1 volume fraction = 0.130194  Min(alpha.water) = -8.62248e-14  Max(alpha.water) = 1
MULES: Correcting alpha.water
MULES: Correcting alpha.water
Phase-1 volume fraction = 0.130194  Min(alpha.water) = -3.99582e-09  Max(alpha.water) = 1
DICPCG:  Solving for p_rgh, Initial residual = 0.0226087, Final residual = 0.000550245, No Iterations 1
time step continuity errors : sum local = 0.000379502, global = -1.44104e-08, cumulative = 0.000553708
DICPCG:  Solving for p_rgh, Initial residual = 0.000648309, Final residual = 3.23285e-05, No Iterations 13
time step continuity errors : sum local = 2.19061e-05, global = 1.37672e-06, cumulative = 0.000555085
DICPCG:  Solving for p_rgh, Initial residual = 0.000109532, Final residual = 7.28096e-08, No Iterations 35
time step continuity errors : sum local = 4.99601e-08, global = -1.73881e-08, cumulative = 0.000555067
ExecutionTime = 0.4 s  ClockTime = 0 s

Courant Number mean: 0.0905798 max: 0.909818
Interface Courant Number mean: 0.00917717 max: 0.909818
deltaT = 0.00179049
Time = 0.14821

PIMPLE: iteration 1
smoothSolver:  Solving for alpha.water, Initial residual = 0.00425546, Final residual = 2.29407e-09, No Iterations 3
Phase-1 volume fraction = 0.130194  Min(alpha.water) = -7.54729e-14  Max(alpha.water) = 1
MULES: Correcting alpha.water
MULES: Correcting alpha.water
Phase-1 volume fraction = 0.130194  Min(alpha.water) = -2.30204e-09  Max(alpha.water) = 1
DICPCG:  Solving for p_rgh, Initial residual = 0.0214064, Final residual = 0.0005659, No Iterations 1
time step continuity errors : sum local = 0.000388002, global = -4.29869e-08, cumulative = 0.000555024
DICPCG:  Solving for p_rgh, Initial residual = 0.000666172, Final residual = 3.32216e-05, No Iterations 13
time step continuity errors : sum local = 2.24214e-05, global = 1.44657e-06, cumulative = 0.000556471
DICPCG:  Solving for p_rgh, Initial residual = 0.000113628, Final residual = 9.40525e-08, No Iterations 45
time step continuity errors : sum local = 6.43881e-08, global = -4.07879e-09, cumulative = 0.000556467
ExecutionTime = 0.4 s  ClockTime = 0 s

Courant Number mean: 0.0908507 max: 0.920615
Interface Courant Number mean: 0.00946059 max: 0.920615
deltaT = 0.00179049
Time = 0.15

PIMPLE: iteration 1
smoothSolver:  Solving for alpha.water, Initial residual = 0.00428144, Final residual = 2.31732e-09, No Iterations 3
Phase-1 volume fraction = 0.130194  Min(alpha.water) = -6.31182e-14  Max(alpha.water) = 1
MULES: Correcting alpha.water
MULES: Correcting alpha.water
Phase-1 volume fraction = 0.130194  Min(alpha.water) = -1.47109e-09  Max(alpha.water) = 1
DICPCG:  Solving for p_rgh, Initial residual = 0.0212417, Final residual = 0.000579693, No Iterations 1
time step continuity errors : sum local = 0.000399339, global = -1.16048e-08, cumulative = 0.000556455
DICPCG:  Solving for p_rgh, Initial residual = 0.000687399, Final residual = 3.35745e-05, No Iterations 9
time step continuity errors : sum local = 2.27624e-05, global = 1.09024e-07, cumulative = 0.000556564
DICPCG:  Solving for p_rgh, Initial residual = 0.00011099, Final residual = 8.68146e-08, No Iterations 33
time step continuity errors : sum local = 5.94587e-08, global = 1.08265e-08, cumulative = 0.000556575
ExecutionTime = 0.42 s  ClockTime = 0 s

Courant Number mean: 0.091112 max: 0.916532
Interface Courant Number mean: 0.00978376 max: 0.916532
deltaT = 0.00192308
Time = 0.151923

PIMPLE: iteration 1
smoothSolver:  Solving for alpha.water, Initial residual = 0.00469384, Final residual = 3.53253e-09, No Iterations 3
Phase-1 volume fraction = 0.130194  Min(alpha.water) = -5.64197e-14  Max(alpha.water) = 1
MULES: Correcting alpha.water
MULES: Correcting alpha.water
Phase-1 volume fraction = 0.130194  Min(alpha.water) = -2.18823e-10  Max(alpha.water) = 1
DICPCG:  Solving for p_rgh, Initial residual = 0.0200729, Final residual = 0.000616397, No Iterations 1
time step continuity errors : sum local = 0.000486015, global = 2.79051e-08, cumulative = 0.000556603
DICPCG:  Solving for p_rgh, Initial residual = 0.000736742, Final residual = 3.4168e-05, No Iterations 9
time step continuity errors : sum local = 2.65333e-05, global = 1.10411e-07, cumulative = 0.000556713
DICPCG:  Solving for p_rgh, Initial residual = 0.000123254, Final residual = 9.68671e-08, No Iterations 46
time step continuity errors : sum local = 7.58505e-08, global = -3.97454e-09, cumulative = 0.000556709
ExecutionTime = 0.42 s  ClockTime = 0 s

Courant Number mean: 0.0981194 max: 0.968527
Interface Courant Number mean: 0.0106406 max: 0.968527
deltaT = 0.00192308
Time = 0.153846

PIMPLE: iteration 1
smoothSolver:  Solving for alpha.water, Initial residual = 0.00476256, Final residual = 3.63159e-09, No Iterations 3
Phase-1 volume fraction = 0.130194  Min(alpha.water) = -5.31632e-14  Max(alpha.water) = 1
MULES: Correcting alpha.water
MULES: Correcting alpha.water
Phase-1 volume fraction = 0.130194  Min(alpha.water) = -1.59258e-10  Max(alpha.water) = 1
DICPCG:  Solving for p_rgh, Initial residual = 0.0189669, Final residual = 0.000615074, No Iterations 1
time step continuity errors : sum local = 0.000485478, global = -2.62656e-08, cumulative = 0.000556683
DICPCG:  Solving for p_rgh, Initial residual = 0.000713761, Final residual = 3.51162e-05, No Iterations 8
time step continuity errors : sum local = 2.73156e-05, global = -2.78531e-08, cumulative = 0.000556655
DICPCG:  Solving for p_rgh, Initial residual = 0.000126302, Final residual = 9.30234e-08, No Iterations 48
time step continuity errors : sum local = 7.27241e-08, global = 1.72843e-09, cumulative = 0.000556657
ExecutionTime = 0.43 s  ClockTime = 0 s

Courant Number mean: 0.0983111 max: 0.963372
Interface Courant Number mean: 0.0113706 max: 0.963372
deltaT = 0.00192308
Time = 0.155769

PIMPLE: iteration 1
smoothSolver:  Solving for alpha.water, Initial residual = 0.00489466, Final residual = 3.68165e-09, No Iterations 3
Phase-1 volume fraction = 0.130194  Min(alpha.water) = -4.83275e-14  Max(alpha.water) = 1
MULES: Correcting alpha.water
MULES: Correcting alpha.water
Phase-1 volume fraction = 0.130194  Min(alpha.water) = -9.34189e-07  Max(alpha.water) = 1
DICPCG:  Solving for p_rgh, Initial residual = 0.0183841, Final residual = 0.00064759, No Iterations 1
time step continuity errors : sum local = 0.00051516, global = 9.10207e-09, cumulative = 0.000556666
DICPCG:  Solving for p_rgh, Initial residual = 0.000733292, Final residual = 3.58192e-05, No Iterations 7
time step continuity errors : sum local = 2.81285e-05, global = -4.09093e-08, cumulative = 0.000556625
DICPCG:  Solving for p_rgh, Initial residual = 0.000125137, Final residual = 8.66675e-08, No Iterations 49
time step continuity errors : sum local = 6.83031e-08, global = -6.25699e-09, cumulative = 0.000556619
ExecutionTime = 0.44 s  ClockTime = 0 s

Courant Number mean: 0.0985696 max: 0.947537
Interface Courant Number mean: 0.0110734 max: 0.947537
deltaT = 0.00213675
Time = 0.157906

PIMPLE: iteration 1
smoothSolver:  Solving for alpha.water, Initial residual = 0.00553387, Final residual = 6.77077e-09, No Iterations 3
Phase-1 volume fraction = 0.130194  Min(alpha.water) = -4.13208e-14  Max(alpha.water) = 1
MULES: Correcting alpha.water
MULES: Correcting alpha.water
Phase-1 volume fraction = 0.130194  Min(alpha.water) = -1.48055e-06  Max(alpha.water) = 1
DICPCG:  Solving for p_rgh, Initial residual = 0.0200824, Final residual = 0.00068185, No Iterations 1
time step continuity errors : sum local = 0.000673716, global = -1.22744e-08, cumulative = 0.000556606
DICPCG:  Solving for p_rgh, Initial residual = 0.000792338, Final residual = 3.51342e-05, No Iterations 8
time step continuity errors : sum local = 3.42827e-05, global = -3.45474e-08, cumulative = 0.000556572
DICPCG:  Solving for p_rgh, Initial residual = 0.000145878, Final residual = 6.60196e-08, No Iterations 50
time step continuity errors : sum local = 6.48098e-08, global = -5.21623e-09, cumulative = 0.000556567
ExecutionTime = 0.44 s  ClockTime = 0 s

Courant Number mean: 0.109964 max: 1.02582
Interface Courant Number mean: 0.0127049 max: 1.02582
deltaT = 0.00213675
Time = 0.160043

PIMPLE: iteration 1
smoothSolver:  Solving for alpha.water, Initial residual = 0.00556725, Final residual = 6.74592e-09, No Iterations 3
Phase-1 volume fraction = 0.130194  Min(alpha.water) = -3.47803e-14  Max(alpha.water) = 1
MULES: Correcting alpha.water
MULES: Correcting alpha.water
Phase-1 volume fraction = 0.130194  Min(alpha.water) = -3.8424e-06  Max(alpha.water) = 1
DICPCG:  Solving for p_rgh, Initial residual = 0.0221077, Final residual = 0.000612464, No Iterations 1
time step continuity errors : sum local = 0.000632888, global = 3.2068e-09, cumulative = 0.00055657
DICPCG:  Solving for p_rgh, Initial residual = 0.000711323, Final residual = 3.43164e-05, No Iterations 9
time step continuity errors : sum local = 3.49499e-05, global = -1.09885e-08, cumulative = 0.000556559
DICPCG:  Solving for p_rgh, Initial residual = 0.000136554, Final residual = 7.30873e-08, No Iterations 50
time step continuity errors : sum local = 7.49588e-08, global = -4.03524e-09, cumulative = 0.000556555
ExecutionTime = 0.45 s  ClockTime = 0 s

Courant Number mean: 0.110242 max: 1.01388
Interface Courant Number mean: 0.0130812 max: 1.01388
deltaT = 0.00213675
Time = 0.162179

PIMPLE: iteration 1
smoothSolver:  Solving for alpha.water, Initial residual = 0.00562047, Final residual = 6.63909e-09, No Iterations 3
Phase-1 volume fraction = 0.130194  Min(alpha.water) = -2.75938e-14  Max(alpha.water) = 1
MULES: Correcting alpha.water
MULES: Correcting alpha.water
Phase-1 volume fraction = 0.130194  Min(alpha.water) = -2.45836e-06  Max(alpha.water) = 1
DICPCG:  Solving for p_rgh, Initial residual = 0.0232784, Final residual = 0.000577678, No Iterations 1
time step continuity errors : sum local = 0.000600568, global = 4.70062e-09, cumulative = 0.00055656
DICPCG:  Solving for p_rgh, Initial residual = 0.000685861, Final residual = 3.23056e-05, No Iterations 9
time step continuity errors : sum local = 3.30001e-05, global = 1.89607e-08, cumulative = 0.000556579
DICPCG:  Solving for p_rgh, Initial residual = 0.00013516, Final residual = 8.31965e-08, No Iterations 50
time step continuity errors : sum local = 8.54518e-08, global = -2.79203e-09, cumulative = 0.000556576
ExecutionTime = 0.46 s  ClockTime = 0 s

Courant Number mean: 0.110536 max: 1.00969
Interface Courant Number mean: 0.0130329 max: 1.00969
deltaT = 0.00213675
Time = 0.164316

PIMPLE: iteration 1
smoothSolver:  Solving for alpha.water, Initial residual = 0.00565355, Final residual = 6.53099e-09, No Iterations 3
Phase-1 volume fraction = 0.130194  Min(alpha.water) = -1.95234e-14  Max(alpha.water) = 1
MULES: Correcting alpha.water
MULES: Correcting alpha.water
Phase-1 volume fraction = 0.130194  Min(alpha.water) = -1.16686e-06  Max(alpha.water) = 1
DICPCG:  Solving for p_rgh, Initial residual = 0.0208994, Final residual = 0.000558375, No Iterations 1
time step continuity errors : sum local = 0.000569951, global = 1.49163e-08, cumulative = 0.000556591
DICPCG:  Solving for p_rgh, Initial residual = 0.000679668, Final residual = 3.29296e-05, No Iterations 7
time step continuity errors : sum local = 3.30712e-05, global = -4.24671e-08, cumulative = 0.000556548
DICPCG:  Solving for p_rgh, Initial residual = 0.000138352, Final residual = 7.29177e-08, No Iterations 50
time step continuity errors : sum local = 7.33851e-08, global = -1.47869e-09, cumulative = 0.000556547
ExecutionTime = 0.46 s  ClockTime = 0 s

Courant Number mean: 0.110809 max: 0.997035
Interface Courant Number mean: 0.0134799 max: 0.997035
deltaT = 0.00213675
Time = 0.166453

PIMPLE: iteration 1
smoothSolver:  Solving for alpha.water, Initial residual = 0.00572631, Final residual = 6.49757e-09, No Iterations 3
Phase-1 volume fraction = 0.130194  Min(alpha.water) = -1.84605e-14  Max(alpha.water) = 1
MULES: Correcting alpha.water
MULES: Correcting alpha.water
Phase-1 volume fraction = 0.130194  Min(alpha.water) = -3.84246e-06  Max(alpha.water) = 1
DICPCG:  Solving for p_rgh, Initial residual = 0.0197963, Final residual = 0.000569317, No Iterations 1
time step continuity errors : sum local = 0.00057107, global = 4.77048e-09, cumulative = 0.000556552
DICPCG:  Solving for p_rgh, Initial residual = 0.000677114, Final residual = 3.14949e-05, No Iterations 6
time step continuity errors : sum local = 3.11393e-05, global = -1.63189e-08, cumulative = 0.000556535
DICPCG:  Solving for p_rgh, Initial residual = 0.000139374, Final residual = 7.80648e-08, No Iterations 51
time step continuity errors : sum local = 7.71448e-08, global = 3.97155e-09, cumulative = 0.000556539
ExecutionTime = 0.46 s  ClockTime = 0 s

Courant Number mean: 0.111007 max: 0.982783
Interface Courant Number mean: 0.014367 max: 0.982783
deltaT = 0.00213675
Time = 0.16859

PIMPLE: iteration 1
smoothSolver:  Solving for alpha.water, Initial residual = 0.00586944, Final residual = 6.3649e-09, No Iterations 3
Phase-1 volume fraction = 0.130194  Min(alpha.water) = -1.75311e-14  Max(alpha.water) = 1
MULES: Correcting alpha.water
MULES: Correcting alpha.water
Phase-1 volume fraction = 0.130194  Min(alpha.water) = -1.03949e-05  Max(alpha.water) = 1
DICPCG:  Solving for p_rgh, Initial residual = 0.0190209, Final residual = 0.000576316, No Iterations 1
time step continuity errors : sum local = 0.000571623, global = 1.10146e-08, cumulative = 0.00055655
DICPCG:  Solving for p_rgh, Initial residual = 0.00068257, Final residual = 2.79216e-05, No Iterations 7
time step continuity errors : sum local = 2.73388e-05, global = -1.44502e-08, cumulative = 0.000556536
DICPCG:  Solving for p_rgh, Initial residual = 0.00014722, Final residual = 8.582e-08, No Iterations 51
time step continuity errors : sum local = 8.39493e-08, global = 4.26061e-09, cumulative = 0.00055654
ExecutionTime = 0.46 s  ClockTime = 0 s

Courant Number mean: 0.111317 max: 0.98443
Interface Courant Number mean: 0.0146783 max: 0.98443
deltaT = 0.00213675
Time = 0.170726

PIMPLE: iteration 1
smoothSolver:  Solving for alpha.water, Initial residual = 0.00598006, Final residual = 6.1591e-09, No Iterations 3
Phase-1 volume fraction = 0.130194  Min(alpha.water) = -1.66264e-14  Max(alpha.water) = 1
MULES: Correcting alpha.water
MULES: Correcting alpha.water
Phase-1 volume fraction = 0.130194  Min(alpha.water) = -6.95049e-06  Max(alpha.water) = 1
DICPCG:  Solving for p_rgh, Initial residual = 0.0183922, Final residual = 0.000599431, No Iterations 1
time step continuity errors : sum local = 0.000591095, global = 2.37394e-08, cumulative = 0.000556564
DICPCG:  Solving for p_rgh, Initial residual = 0.000701752, Final residual = 2.92882e-05, No Iterations 7
time step continuity errors : sum local = 2.85392e-05, global = -1.83942e-08, cumulative = 0.000556545
DICPCG:  Solving for p_rgh, Initial residual = 0.000145151, Final residual = 8.28294e-08, No Iterations 51
time step continuity errors : sum local = 8.05913e-08, global = 4.45652e-09, cumulative = 0.00055655
ExecutionTime = 0.47 s  ClockTime = 0 s

Courant Number mean: 0.111662 max: 0.996593
Interface Courant Number mean: 0.0150791 max: 0.996593
deltaT = 0.00213675
Time = 0.172863

PIMPLE: iteration 1
smoothSolver:  Solving for alpha.water, Initial residual = 0.00606861, Final residual = 5.98971e-09, No Iterations 3
Phase-1 volume fraction = 0.130194  Min(alpha.water) = -1.61224e-14  Max(alpha.water) = 1
MULES: Correcting alpha.water
MULES: Correcting alpha.water
Phase-1 volume fraction = 0.130194  Min(alpha.water) = -5.42616e-06  Max(alpha.water) = 1
DICPCG:  Solving for p_rgh, Initial residual = 0.0178524, Final residual = 0.000678672, No Iterations 1
time step continuity errors : sum local = 0.000665178, global = 2.40189e-08, cumulative = 0.000556574
DICPCG:  Solving for p_rgh, Initial residual = 0.000787047, Final residual = 3.26758e-05, No Iterations 11
time step continuity errors : sum local = 3.17143e-05, global = 3.80076e-07, cumulative = 0.000556954
DICPCG:  Solving for p_rgh, Initial residual = 0.000154489, Final residual = 9.88772e-08, No Iterations 51
time step continuity errors : sum local = 9.5416e-08, global = 7.96728e-10, cumulative = 0.000556955
ExecutionTime = 0.49 s  ClockTime = 0 s

Courant Number mean: 0.112092 max: 1.00899
Interface Courant Number mean: 0.0153615 max: 1.00899
deltaT = 0.00213675
Time = 0.175

PIMPLE: iteration 1
smoothSolver:  Solving for alpha.water, Initial residual = 0.0061752, Final residual = 5.8001e-09, No Iterations 3
Phase-1 volume fraction = 0.130194  Min(alpha.water) = -1.5871e-14  Max(alpha.water) = 1
MULES: Correcting alpha.water
MULES: Correcting alpha.water
Phase-1 volume fraction = 0.130194  Min(alpha.water) = -1.60293e-05  Max(alpha.water) = 1
DICPCG:  Solving for p_rgh, Initial residual = 0.0177785, Final residual = 0.000764311, No Iterations 1
time step continuity errors : sum local = 0.000753672, global = 1.57616e-08, cumulative = 0.00055697
DICPCG:  Solving for p_rgh, Initial residual = 0.000882372, Final residual = 4.07058e-05, No Iterations 7
time step continuity errors : sum local = 3.98e-05, global = -6.44217e-09, cumulative = 0.000556964
DICPCG:  Solving for p_rgh, Initial residual = 0.000164124, Final residual = 7.01926e-08, No Iterations 52
time step continuity errors : sum local = 6.84143e-08, global = -5.16864e-10, cumulative = 0.000556964
ExecutionTime = 0.5 s  ClockTime = 0 s

Courant Number mean: 0.112587 max: 1.0189
Interface Courant Number mean: 0.0153755 max: 1.0152
deltaT = 0.00208333
Time = 0.177083

PIMPLE: iteration 1
smoothSolver:  Solving for alpha.water, Initial residual = 0.00608919, Final residual = 4.75993e-09, No Iterations 3
Phase-1 volume fraction = 0.130194  Min(alpha.water) = -1.56199e-14  Max(alpha.water) = 1
MULES: Correcting alpha.water
MULES: Correcting alpha.water
Phase-1 volume fraction = 0.130194  Min(alpha.water) = -9.32303e-06  Max(alpha.water) = 1
DICPCG:  Solving for p_rgh, Initial residual = 0.020088, Final residual = 0.000803899, No Iterations 1
[...]
ExecutionTime = 3.63 s  ClockTime = 3 s

Courant Number mean: 0.150481 max: 0.897621
Interface Courant Number mean: 0.0343576 max: 0.551844
deltaT = 0.00227273
Time = 0.95

PIMPLE: iteration 1
smoothSolver:  Solving for alpha.water, Initial residual = 0.00673097, Final residual = 4.16114e-09, No Iterations 3
Phase-1 volume fraction = 0.127432  Min(alpha.water) = -2.15173e-13  Max(alpha.water) = 1
MULES: Correcting alpha.water
MULES: Correcting alpha.water
Phase-1 volume fraction = 0.127432  Min(alpha.water) = -2.15173e-13  Max(alpha.water) = 1
DICPCG:  Solving for p_rgh, Initial residual = 0.0320206, Final residual = 0.000509697, No Iterations 2
time step continuity errors : sum local = 0.000394836, global = 3.46867e-08, cumulative = 0.00316178
DICPCG:  Solving for p_rgh, Initial residual = 0.000678467, Final residual = 3.14398e-05, No Iterations 8
time step continuity errors : sum local = 2.40391e-05, global = -3.60304e-07, cumulative = 0.00316142
DICPCG:  Solving for p_rgh, Initial residual = 0.00012393, Final residual = 8.2929e-08, No Iterations 52
time step continuity errors : sum local = 6.34905e-08, global = 3.90893e-09, cumulative = 0.00316142
ExecutionTime = 3.65 s  ClockTime = 3 s

Courant Number mean: 0.150878 max: 0.887299
Interface Courant Number mean: 0.0341681 max: 0.546321
deltaT = 0.0025
Time = 0.9525

PIMPLE: iteration 1
smoothSolver:  Solving for alpha.water, Initial residual = 0.00745467, Final residual = 7.12763e-09, No Iterations 3
Phase-1 volume fraction = 0.127432  Min(alpha.water) = -2.13274e-13  Max(alpha.water) = 1
MULES: Correcting alpha.water
MULES: Correcting alpha.water
Phase-1 volume fraction = 0.127432  Min(alpha.water) = -2.13274e-13  Max(alpha.water) = 1
DICPCG:  Solving for p_rgh, Initial residual = 0.0328809, Final residual = 0.000539198, No Iterations 2
time step continuity errors : sum local = 0.000506311, global = 4.21926e-08, cumulative = 0.00316146
DICPCG:  Solving for p_rgh, Initial residual = 0.000712459, Final residual = 3.32539e-05, No Iterations 9
time step continuity errors : sum local = 3.08232e-05, global = -8.83753e-07, cumulative = 0.00316058
DICPCG:  Solving for p_rgh, Initial residual = 0.000143424, Final residual = 8.86315e-08, No Iterations 50
time step continuity errors : sum local = 8.25313e-08, global = -2.75042e-09, cumulative = 0.00316058
ExecutionTime = 3.66 s  ClockTime = 3 s

Courant Number mean: 0.166397 max: 0.960031
Interface Courant Number mean: 0.037279 max: 0.599026
deltaT = 0.0025
Time = 0.955

PIMPLE: iteration 1
smoothSolver:  Solving for alpha.water, Initial residual = 0.00740791, Final residual = 6.86367e-09, No Iterations 3
Phase-1 volume fraction = 0.127432  Min(alpha.water) = -2.11352e-13  Max(alpha.water) = 1
MULES: Correcting alpha.water
MULES: Correcting alpha.water
Phase-1 volume fraction = 0.127432  Min(alpha.water) = -2.11352e-13  Max(alpha.water) = 1
DICPCG:  Solving for p_rgh, Initial residual = 0.0311817, Final residual = 0.000538486, No Iterations 2
time step continuity errors : sum local = 0.000499125, global = 2.98798e-08, cumulative = 0.00316061
DICPCG:  Solving for p_rgh, Initial residual = 0.000717796, Final residual = 3.21177e-05, No Iterations 26
time step continuity errors : sum local = 2.94276e-05, global = -7.60227e-06, cumulative = 0.003153
DICPCG:  Solving for p_rgh, Initial residual = 0.000150748, Final residual = 7.20918e-08, No Iterations 51
time step continuity errors : sum local = 6.63002e-08, global = 1.13968e-09, cumulative = 0.003153
ExecutionTime = 3.66 s  ClockTime = 3 s

Courant Number mean: 0.166825 max: 0.940401
Interface Courant Number mean: 0.0368522 max: 0.579455
deltaT = 0.0025
Time = 0.9575

PIMPLE: iteration 1
smoothSolver:  Solving for alpha.water, Initial residual = 0.00739462, Final residual = 6.74623e-09, No Iterations 3
Phase-1 volume fraction = 0.127432  Min(alpha.water) = -2.09405e-13  Max(alpha.water) = 1
MULES: Correcting alpha.water
MULES: Correcting alpha.water
Phase-1 volume fraction = 0.127432  Min(alpha.water) = -2.09405e-13  Max(alpha.water) = 1
DICPCG:  Solving for p_rgh, Initial residual = 0.0306249, Final residual = 0.000529582, No Iterations 2
time step continuity errors : sum local = 0.00048502, global = 2.43347e-07, cumulative = 0.00315325
DICPCG:  Solving for p_rgh, Initial residual = 0.000764405, Final residual = 3.33236e-05, No Iterations 27
time step continuity errors : sum local = 3.0075e-05, global = -5.30722e-06, cumulative = 0.00314794
DICPCG:  Solving for p_rgh, Initial residual = 0.000169457, Final residual = 8.52943e-08, No Iterations 53
time step continuity errors : sum local = 7.72564e-08, global = -2.86515e-09, cumulative = 0.00314794
ExecutionTime = 3.67 s  ClockTime = 3 s

Courant Number mean: 0.167141 max: 0.918457
Interface Courant Number mean: 0.0363969 max: 0.575674
deltaT = 0.00291667
Time = 0.960417

PIMPLE: iteration 1
smoothSolver:  Solving for alpha.water, Initial residual = 0.00859339, Final residual = 3.40024e-10, No Iterations 4
Phase-1 volume fraction = 0.127432  Min(alpha.water) = -2.071e-13  Max(alpha.water) = 1
MULES: Correcting alpha.water
MULES: Correcting alpha.water
Phase-1 volume fraction = 0.127432  Min(alpha.water) = -3.75565e-08  Max(alpha.water) = 1
DICPCG:  Solving for p_rgh, Initial residual = 0.0333538, Final residual = 0.000617842, No Iterations 2
time step continuity errors : sum local = 0.000738383, global = 2.47745e-07, cumulative = 0.00314819
DICPCG:  Solving for p_rgh, Initial residual = 0.000820652, Final residual = 3.79039e-05, No Iterations 28
time step continuity errors : sum local = 4.47451e-05, global = -1.69391e-05, cumulative = 0.00313125
DICPCG:  Solving for p_rgh, Initial residual = 0.00017899, Final residual = 8.4321e-08, No Iterations 53
time step continuity errors : sum local = 1.00275e-07, global = 9.15858e-10, cumulative = 0.00313125
ExecutionTime = 3.68 s  ClockTime = 3 s

Courant Number mean: 0.195536 max: 1.04244
Interface Courant Number mean: 0.0415705 max: 0.669496
deltaT = 0.00291667
Time = 0.963333

PIMPLE: iteration 1
smoothSolver:  Solving for alpha.water, Initial residual = 0.00857119, Final residual = 3.4472e-10, No Iterations 4
Phase-1 volume fraction = 0.127432  Min(alpha.water) = -2.04761e-13  Max(alpha.water) = 1
MULES: Correcting alpha.water
MULES: Correcting alpha.water
Phase-1 volume fraction = 0.127432  Min(alpha.water) = -2.04761e-13  Max(alpha.water) = 1
DICPCG:  Solving for p_rgh, Initial residual = 0.0331023, Final residual = 0.000585289, No Iterations 2
time step continuity errors : sum local = 0.000715733, global = 6.63257e-07, cumulative = 0.00313191
DICPCG:  Solving for p_rgh, Initial residual = 0.000769488, Final residual = 3.51093e-05, No Iterations 28
time step continuity errors : sum local = 4.21779e-05, global = -1.56458e-05, cumulative = 0.00311627
DICPCG:  Solving for p_rgh, Initial residual = 0.000171702, Final residual = 7.51289e-08, No Iterations 51
time step continuity errors : sum local = 9.08147e-08, global = -1.36027e-09, cumulative = 0.00311626
ExecutionTime = 3.69 s  ClockTime = 3 s

Courant Number mean: 0.195954 max: 1.02669
Interface Courant Number mean: 0.0417909 max: 0.671355
deltaT = 0.00291667
Time = 0.96625

PIMPLE: iteration 1
smoothSolver:  Solving for alpha.water, Initial residual = 0.00855213, Final residual = 3.4709e-10, No Iterations 4
Phase-1 volume fraction = 0.127432  Min(alpha.water) = -2.02384e-13  Max(alpha.water) = 1
MULES: Correcting alpha.water
MULES: Correcting alpha.water
Phase-1 volume fraction = 0.127432  Min(alpha.water) = -2.02384e-13  Max(alpha.water) = 1
DICPCG:  Solving for p_rgh, Initial residual = 0.0362594, Final residual = 0.000616621, No Iterations 2
time step continuity errors : sum local = 0.000753787, global = 6.13323e-07, cumulative = 0.00311688
DICPCG:  Solving for p_rgh, Initial residual = 0.000792612, Final residual = 3.69224e-05, No Iterations 29
time step continuity errors : sum local = 4.42747e-05, global = -1.83514e-05, cumulative = 0.00309853
DICPCG:  Solving for p_rgh, Initial residual = 0.000176602, Final residual = 8.74819e-08, No Iterations 51
time step continuity errors : sum local = 1.06006e-07, global = -1.43034e-10, cumulative = 0.00309853
ExecutionTime = 3.69 s  ClockTime = 3 s

Courant Number mean: 0.196233 max: 1.00552
Interface Courant Number mean: 0.0419918 max: 0.639633
deltaT = 0.00291667
Time = 0.969167

PIMPLE: iteration 1
smoothSolver:  Solving for alpha.water, Initial residual = 0.00853243, Final residual = 3.44823e-10, No Iterations 4
Phase-1 volume fraction = 0.127432  Min(alpha.water) = -1.99962e-13  Max(alpha.water) = 1
MULES: Correcting alpha.water
MULES: Correcting alpha.water
Phase-1 volume fraction = 0.127432  Min(alpha.water) = -1.99962e-13  Max(alpha.water) = 1
DICPCG:  Solving for p_rgh, Initial residual = 0.0345053, Final residual = 0.000599056, No Iterations 2
time step continuity errors : sum local = 0.000728415, global = 6.91743e-07, cumulative = 0.00309922
DICPCG:  Solving for p_rgh, Initial residual = 0.00079196, Final residual = 3.70188e-05, No Iterations 38
time step continuity errors : sum local = 4.4214e-05, global = -9.4843e-07, cumulative = 0.00309827
DICPCG:  Solving for p_rgh, Initial residual = 0.000175543, Final residual = 7.18325e-08, No Iterations 53
time step continuity errors : sum local = 8.71337e-08, global = 5.51911e-09, cumulative = 0.00309827
ExecutionTime = 3.7 s  ClockTime = 3 s

Courant Number mean: 0.196386 max: 0.982483
Interface Courant Number mean: 0.0421962 max: 0.636674
deltaT = 0.00291667
Time = 0.972083

PIMPLE: iteration 1
smoothSolver:  Solving for alpha.water, Initial residual = 0.00845957, Final residual = 3.35356e-10, No Iterations 4
Phase-1 volume fraction = 0.127432  Min(alpha.water) = -1.97487e-13  Max(alpha.water) = 1
MULES: Correcting alpha.water
MULES: Correcting alpha.water
Phase-1 volume fraction = 0.127432  Min(alpha.water) = -1.97487e-13  Max(alpha.water) = 1
DICPCG:  Solving for p_rgh, Initial residual = 0.0320788, Final residual = 0.000560483, No Iterations 2
time step continuity errors : sum local = 0.000703307, global = -5.28921e-09, cumulative = 0.00309827
DICPCG:  Solving for p_rgh, Initial residual = 0.000730836, Final residual = 3.60582e-05, No Iterations 28
time step continuity errors : sum local = 4.43571e-05, global = -1.70192e-05, cumulative = 0.00308125
DICPCG:  Solving for p_rgh, Initial residual = 0.000152869, Final residual = 8.31368e-08, No Iterations 53
time step continuity errors : sum local = 1.03105e-07, global = -2.07843e-09, cumulative = 0.00308125
ExecutionTime = 3.71 s  ClockTime = 3 s

Courant Number mean: 0.196641 max: 0.956594
Interface Courant Number mean: 0.042793 max: 0.68092
deltaT = 0.00291667
Time = 0.975

PIMPLE: iteration 1
smoothSolver:  Solving for alpha.water, Initial residual = 0.00850217, Final residual = 3.32798e-10, No Iterations 4
Phase-1 volume fraction = 0.127432  Min(alpha.water) = -1.9496e-13  Max(alpha.water) = 1
MULES: Correcting alpha.water
MULES: Correcting alpha.water
Phase-1 volume fraction = 0.127432  Min(alpha.water) = -1.20697e-06  Max(alpha.water) = 1
DICPCG:  Solving for p_rgh, Initial residual = 0.030042, Final residual = 0.000590854, No Iterations 2
time step continuity errors : sum local = 0.000729327, global = 6.48762e-07, cumulative = 0.0030819
DICPCG:  Solving for p_rgh, Initial residual = 0.000760471, Final residual = 3.69582e-05, No Iterations 28
time step continuity errors : sum local = 4.49337e-05, global = -1.53849e-05, cumulative = 0.00306651
DICPCG:  Solving for p_rgh, Initial residual = 0.000155107, Final residual = 9.72341e-08, No Iterations 51
time step continuity errors : sum local = 1.19291e-07, global = 3.13903e-09, cumulative = 0.00306651
ExecutionTime = 3.73 s  ClockTime = 3 s

Courant Number mean: 0.196779 max: 0.927315
Interface Courant Number mean: 0.0433326 max: 0.694868
deltaT = 0.003125
Time = 0.978125

PIMPLE: iteration 1
smoothSolver:  Solving for alpha.water, Initial residual = 0.00915381, Final residual = 5.4682e-10, No Iterations 4
Phase-1 volume fraction = 0.127432  Min(alpha.water) = -1.92196e-13  Max(alpha.water) = 1
MULES: Correcting alpha.water
MULES: Correcting alpha.water
Phase-1 volume fraction = 0.127432  Min(alpha.water) = -1.92196e-13  Max(alpha.water) = 1
DICPCG:  Solving for p_rgh, Initial residual = 0.0288742, Final residual = 0.000586998, No Iterations 2
time step continuity errors : sum local = 0.0008128, global = 6.72163e-07, cumulative = 0.00306719
DICPCG:  Solving for p_rgh, Initial residual = 0.000772801, Final residual = 3.59029e-05, No Iterations 10
time step continuity errors : sum local = 4.90865e-05, global = 1.78093e-06, cumulative = 0.00306897
DICPCG:  Solving for p_rgh, Initial residual = 0.000165992, Final residual = 9.37452e-08, No Iterations 53
time step continuity errors : sum local = 1.28927e-07, global = 5.38572e-09, cumulative = 0.00306897
ExecutionTime = 3.74 s  ClockTime = 3 s

Courant Number mean: 0.21093 max: 0.963053
Interface Courant Number mean: 0.0457129 max: 0.750657
deltaT = 0.003125
Time = 0.98125

PIMPLE: iteration 1
smoothSolver:  Solving for alpha.water, Initial residual = 0.00912859, Final residual = 5.27795e-10, No Iterations 4
Phase-1 volume fraction = 0.127432  Min(alpha.water) = -1.89376e-13  Max(alpha.water) = 1
MULES: Correcting alpha.water
MULES: Correcting alpha.water
Phase-1 volume fraction = 0.127432  Min(alpha.water) = -2.28732e-06  Max(alpha.water) = 1
DICPCG:  Solving for p_rgh, Initial residual = 0.0274648, Final residual = 0.00055651, No Iterations 2
time step continuity errors : sum local = 0.000789947, global = -6.31844e-08, cumulative = 0.00306891
DICPCG:  Solving for p_rgh, Initial residual = 0.000737528, Final residual = 3.21101e-05, No Iterations 29
time step continuity errors : sum local = 4.50011e-05, global = -1.76703e-05, cumulative = 0.00305124
DICPCG:  Solving for p_rgh, Initial residual = 0.000157237, Final residual = 8.25618e-08, No Iterations 53
time step continuity errors : sum local = 1.16948e-07, global = -1.16888e-09, cumulative = 0.00305124
ExecutionTime = 3.74 s  ClockTime = 4 s

Courant Number mean: 0.210812 max: 0.930762
Interface Courant Number mean: 0.0449659 max: 0.688498
deltaT = 0.003125
Time = 0.984375

PIMPLE: iteration 1
smoothSolver:  Solving for alpha.water, Initial residual = 0.00906536, Final residual = 5.00109e-10, No Iterations 4
Phase-1 volume fraction = 0.127432  Min(alpha.water) = -1.86509e-13  Max(alpha.water) = 1
MULES: Correcting alpha.water
MULES: Correcting alpha.water
Phase-1 volume fraction = 0.127432  Min(alpha.water) = -2.55628e-06  Max(alpha.water) = 1
DICPCG:  Solving for p_rgh, Initial residual = 0.0260316, Final residual = 0.000587959, No Iterations 2
time step continuity errors : sum local = 0.000843016, global = 7.27253e-07, cumulative = 0.00305197
DICPCG:  Solving for p_rgh, Initial residual = 0.000767742, Final residual = 3.57148e-05, No Iterations 30
time step continuity errors : sum local = 5.06336e-05, global = -2.04111e-05, cumulative = 0.00303155
DICPCG:  Solving for p_rgh, Initial residual = 0.000168839, Final residual = 8.21085e-08, No Iterations 54
time step continuity errors : sum local = 1.17566e-07, global = -3.36644e-09, cumulative = 0.00303155
ExecutionTime = 3.75 s  ClockTime = 4 s

Courant Number mean: 0.210505 max: 0.89829
Interface Courant Number mean: 0.045245 max: 0.706344
deltaT = 0.00390625
Time = 0.988281

PIMPLE: iteration 1
smoothSolver:  Solving for alpha.water, Initial residual = 0.0111327, Final residual = 2.37775e-09, No Iterations 4
Phase-1 volume fraction = 0.127432  Min(alpha.water) = -1.82863e-13  Max(alpha.water) = 1
MULES: Correcting alpha.water
MULES: Correcting alpha.water
Phase-1 volume fraction = 0.127432  Min(alpha.water) = -3.0844e-07  Max(alpha.water) = 1
DICPCG:  Solving for p_rgh, Initial residual = 0.0297635, Final residual = 0.000642061, No Iterations 2
time step continuity errors : sum local = 0.00137524, global = 1.23902e-06, cumulative = 0.00303279
DICPCG:  Solving for p_rgh, Initial residual = 0.000853509, Final residual = 3.57709e-05, No Iterations 10
time step continuity errors : sum local = 7.54087e-05, global = 3.31071e-06, cumulative = 0.0030361
DICPCG:  Solving for p_rgh, Initial residual = 0.000201207, Final residual = 8.53472e-08, No Iterations 53
time step continuity errors : sum local = 1.81571e-07, global = 4.6595e-09, cumulative = 0.00303611
ExecutionTime = 3.76 s  ClockTime = 4 s

Courant Number mean: 0.262972 max: 1.0883
Interface Courant Number mean: 0.0562578 max: 0.89587
deltaT = 0.00390625
Time = 0.992188

PIMPLE: iteration 1
smoothSolver:  Solving for alpha.water, Initial residual = 0.0109703, Final residual = 2.23887e-09, No Iterations 4
Phase-1 volume fraction = 0.127432  Min(alpha.water) = -1.7917e-13  Max(alpha.water) = 1
MULES: Correcting alpha.water
MULES: Correcting alpha.water
Phase-1 volume fraction = 0.127432  Min(alpha.water) = -3.44891e-07  Max(alpha.water) = 1
DICPCG:  Solving for p_rgh, Initial residual = 0.0284816, Final residual = 0.000626078, No Iterations 2
time step continuity errors : sum local = 0.00133704, global = -2.41771e-07, cumulative = 0.00303586
DICPCG:  Solving for p_rgh, Initial residual = 0.000831407, Final residual = 3.85122e-05, No Iterations 9
time step continuity errors : sum local = 8.094e-05, global = -3.42591e-06, cumulative = 0.00303244
DICPCG:  Solving for p_rgh, Initial residual = 0.000184541, Final residual = 6.6868e-08, No Iterations 53
time step continuity errors : sum local = 1.41203e-07, global = 1.57913e-09, cumulative = 0.00303244
ExecutionTime = 3.77 s  ClockTime = 4 s

Courant Number mean: 0.263005 max: 1.13393
Interface Courant Number mean: 0.057108 max: 0.980897
deltaT = 0.00390625
Time = 0.996094

PIMPLE: iteration 1
smoothSolver:  Solving for alpha.water, Initial residual = 0.0107949, Final residual = 2.23502e-09, No Iterations 4
Phase-1 volume fraction = 0.127432  Min(alpha.water) = -1.75448e-13  Max(alpha.water) = 1
MULES: Correcting alpha.water
MULES: Correcting alpha.water
Phase-1 volume fraction = 0.127432  Min(alpha.water) = -2.38033e-07  Max(alpha.water) = 1
DICPCG:  Solving for p_rgh, Initial residual = 0.0298508, Final residual = 0.000702796, No Iterations 2
time step continuity errors : sum local = 0.00148281, global = 2.80901e-08, cumulative = 0.00303247
DICPCG:  Solving for p_rgh, Initial residual = 0.000918584, Final residual = 4.17425e-05, No Iterations 9
time step continuity errors : sum local = 8.66925e-05, global = -1.35451e-06, cumulative = 0.00303111
DICPCG:  Solving for p_rgh, Initial residual = 0.00019896, Final residual = 8.08101e-08, No Iterations 54
time step continuity errors : sum local = 1.68644e-07, global = 1.22647e-09, cumulative = 0.00303111
ExecutionTime = 3.77 s  ClockTime = 4 s

Courant Number mean: 0.263119 max: 1.17073
Interface Courant Number mean: 0.0572784 max: 1.04022
deltaT = 0.00390625
Time = 1

PIMPLE: iteration 1
smoothSolver:  Solving for alpha.water, Initial residual = 0.0106618, Final residual = 2.34772e-09, No Iterations 4
Phase-1 volume fraction = 0.127432  Min(alpha.water) = -1.71713e-13  Max(alpha.water) = 1
MULES: Correcting alpha.water
MULES: Correcting alpha.water
Phase-1 volume fraction = 0.127432  Min(alpha.water) = -6.55408e-06  Max(alpha.water) = 1
DICPCG:  Solving for p_rgh, Initial residual = 0.0284548, Final residual = 0.000634239, No Iterations 2
time step continuity errors : sum local = 0.00134345, global = -1.55115e-07, cumulative = 0.00303096
DICPCG:  Solving for p_rgh, Initial residual = 0.000837812, Final residual = 2.93991e-05, No Iterations 10
time step continuity errors : sum local = 6.1353e-05, global = 8.81609e-07, cumulative = 0.00303184
DICPCG:  Solving for p_rgh, Initial residual = 0.000182161, Final residual = 9.60112e-08, No Iterations 51
time step continuity errors : sum local = 2.01679e-07, global = 3.10791e-08, cumulative = 0.00303187
ExecutionTime = 3.78 s  ClockTime = 4 s

End

